  0
SECTION
  2
ENTITIES
999
DXF created from EnergyPlus
999
Program Version,EnergyPlus, Version 8.7.0-78a111df4a, YMD=2017.04.25 14:45
999
Polygon Action,ThickPolyline
999
Color Scheme,Default
999
Text - True North
  0
TEXT
  8
1
  6
Continuous
 62
  3
 10
      -16.00000
 20
       -2.00000
 30
        0.10000
 40
 .25
  1
True North
 41
 0.0
  7
MONOTXT
210
0.0
220
0.0
230
1.0
999
Text - Building Title
  0
TEXT
  8
1
  6
Continuous
 62
  3
 10
      -19.00000
 20
       -6.00000
 30
        0.10000
 40
 .4
  1
Building - Building
 41
 0.0
  7
MONOTXT
210
0.0
220
0.0
230
1.0
999
North Arrow Stem
  0
3DFACE
  8
1
 62
  3
 10
      -15.00000
 20
       -2.00000
 30
        0.10000
 11
      -15.00000
 21
       -2.00000
 31
        0.00000
 12
      -15.00000
 22
       -5.00000
 32
        0.00000
 13
      -15.00000
 23
       -5.00000
 33
        0.10000
999
North Arrow Head 1
  0
3DFACE
  8
1
 62
  3
 10
      -15.00000
 20
       -2.00000
 30
        0.10000
 11
      -15.00000
 21
       -2.00000
 31
        0.00000
 12
      -15.50000
 22
       -2.86603
 32
        0.00000
 13
      -15.50000
 23
       -2.86603
 33
        0.10000
999
North Arrow Head 2
  0
3DFACE
  8
1
 62
  3
 10
      -15.00000
 20
       -2.00000
 30
        0.10000
 11
      -15.00000
 21
       -2.00000
 31
        0.00000
 12
      -14.50000
 22
       -2.86603
 32
        0.00000
 13
      -14.50000
 23
       -2.86603
 33
        0.10000
999
North Arrow Side 1
  0
3DFACE
  8
1
 62
  3
 10
      -15.50000
 20
       -0.50000
 30
        0.10000
 11
      -15.50000
 21
       -0.50000
 31
        0.00000
 12
      -15.50000
 22
       -1.50000
 32
        0.00000
 13
      -15.50000
 23
       -1.50000
 33
        0.10000
999
North Arrow Side 2
  0
3DFACE
  8
1
 62
  3
 10
      -15.50000
 20
       -0.50000
 30
        0.10000
 11
      -15.50000
 21
       -0.50000
 31
        0.00000
 12
      -14.50000
 22
       -1.50000
 32
        0.00000
 13
      -14.50000
 23
       -1.50000
 33
        0.10000
999
North Arrow Side 3
  0
3DFACE
  8
1
 62
  3
 10
      -14.50000
 20
       -0.50000
 30
        0.10000
 11
      -14.50000
 21
       -0.50000
 31
        0.00000
 12
      -14.50000
 22
       -1.50000
 32
        0.00000
 13
      -14.50000
 23
       -1.50000
 33
        0.10000
999
Zone Names
999
Zone=1:ZONE1
999
ZONE1:WALL0
  0
3DFACE
  8
ZONE1
 62
 43
 10
        5.00000
 20
        5.00000
 30
        4.00000
 11
       -5.00000
 21
        5.00000
 31
        4.00000
 12
       -5.00000
 22
        5.00000
 32
        0.00000
 13
        5.00000
 23
        5.00000
 33
        0.00000
999
ZONE1:WIN0
  0
3DFACE
  8
ZONE1
 62
143
 10
        4.75000
 20
        5.00000
 30
        2.80000
 11
       -4.75000
 21
        5.00000
 31
        2.80000
 12
       -4.75000
 22
        5.00000
 32
        1.20000
 13
        4.75000
 23
        5.00000
 33
        1.20000
999
ZONE1:WALL1
  0
3DFACE
  8
ZONE1
 62
 43
 10
        5.00000
 20
       -5.00000
 30
        4.00000
 11
        5.00000
 21
        5.00000
 31
        4.00000
 12
        5.00000
 22
        5.00000
 32
        0.00000
 13
        5.00000
 23
       -5.00000
 33
        0.00000
999
ZONE1:WALL2
  0
3DFACE
  8
ZONE1
 62
 43
 10
       -5.00000
 20
       -5.00000
 30
        4.00000
 11
        5.00000
 21
       -5.00000
 31
        4.00000
 12
        5.00000
 22
       -5.00000
 32
        0.00000
 13
       -5.00000
 23
       -5.00000
 33
        0.00000
999
ZONE1:WALL3
  0
3DFACE
  8
ZONE1
 62
 43
 10
       -5.00000
 20
        5.00000
 30
        4.00000
 11
       -5.00000
 21
       -5.00000
 31
        4.00000
 12
       -5.00000
 22
       -5.00000
 32
        0.00000
 13
       -5.00000
 23
        5.00000
 33
        0.00000
999
ZONE1:FLOOR0
  0
3DFACE
  8
ZONE1
 62
  8
 10
        5.00000
 20
       -5.00000
 30
        0.00000
 11
       -5.00000
 21
       -5.00000
 31
        0.00000
 12
       -5.00000
 22
        5.00000
 32
        0.00000
 13
        5.00000
 23
        5.00000
 33
        0.00000
999
ZONE1:ROOF0
  0
3DFACE
  8
ZONE1
 62
 15
 10
       -5.00000
 20
       -5.00000
 30
        4.00000
 11
        5.00000
 21
       -5.00000
 31
        4.00000
 12
        5.00000
 22
        5.00000
 32
        4.00000
 13
       -5.00000
 23
        5.00000
 33
        4.00000
999
ZONE1:SHADE0
  0
3DFACE
  8
ZONE1
 62
 13
 10
       -4.75000
 20
        6.00000
 30
        2.80000
 11
        4.75000
 21
        6.00000
 31
        2.80000
 12
        4.75000
 22
        5.00000
 32
        2.80000
 13
       -4.75000
 23
        5.00000
 33
        2.80000
999
ZONE1:Mir-SHADE0
  0
3DFACE
  8
ZONE1
 62
 13
 10
       -4.75000
 20
        5.00000
 30
        2.80000
 11
        4.75000
 21
        5.00000
 31
        2.80000
 12
        4.75000
 22
        6.00000
 32
        2.80000
 13
       -4.75000
 23
        6.00000
 33
        2.80000
  0
ENDSEC
  0
EOF
