!-Generator IDFEditor 1.49
!-Option SortedOrder

!-NOTE: All comments with '!-' are ignored by the IDFEditor and are generated automatically.
!-      Use '!' comments if they need to be retained when using the IDFEditor.


!-   ===========  ALL OBJECTS IN CLASS: SIMULATIONCONTROL ===========

! ==================================================================
SimulationControl,
    No,                      !- Do Zone Sizing Calculation
    No,                      !- Do System Sizing Calculation
    No,                      !- Do Plant Sizing Calculation
    No,                      !- Run Simulation for Sizing Periods
    Yes;                     !- Run Simulation for Weather File Run Periods


!-   ===========  ALL OBJECTS IN CLASS: MATERIAL ===========

! ==================================================================
! MATERIALS AND CONSTRUCTIONS
! ==================================================================
Material,
    F06 EIFS finish,         !- Name
    Smooth,                  !- Roughness
    0.0095,                  !- Thickness {m}
    0.72,                    !- Conductivity {W/m-K}
    1856,                    !- Density {kg/m3}
    840;                     !- Specific Heat {J/kg-K}

Material,
    F07 25mm stucco,         !- Name
    Smooth,                  !- Roughness
    0.0254,                  !- Thickness {m}
    0.72,                    !- Conductivity {W/m-K}
    1856,                    !- Density {kg/m3}
    840;                     !- Specific Heat {J/kg-K}

Material,
    F08 Metal surface,       !- Name
    Smooth,                  !- Roughness
    0.0008,                  !- Thickness {m}
    45.28,                   !- Conductivity {W/m-K}
    7824,                    !- Density {kg/m3}
    500;                     !- Specific Heat {J/kg-K}

Material,
    F09 Opaque spandrel glass,  !- Name
    Smooth,                  !- Roughness
    0.0064,                  !- Thickness {m}
    0.99,                    !- Conductivity {W/m-K}
    2528,                    !- Density {kg/m3}
    880;                     !- Specific Heat {J/kg-K}

Material,
    F10 25mm stone,          !- Name
    MediumRough,             !- Roughness
    0.0254,                  !- Thickness {m}
    3.17,                    !- Conductivity {W/m-K}
    2560,                    !- Density {kg/m3}
    790;                     !- Specific Heat {J/kg-K}

Material,
    F11 Wood siding,         !- Name
    MediumSmooth,            !- Roughness
    0.0127,                  !- Thickness {m}
    0.09,                    !- Conductivity {W/m-K}
    592,                     !- Density {kg/m3}
    1170;                    !- Specific Heat {J/kg-K}

Material,
    F12 Asphalt shingles,    !- Name
    VeryRough,               !- Roughness
    0.0032,                  !- Thickness {m}
    0.04,                    !- Conductivity {W/m-K}
    1120,                    !- Density {kg/m3}
    1260;                    !- Specific Heat {J/kg-K}

Material,
    F13 Built-up roofing,    !- Name
    Rough,                   !- Roughness
    0.0095,                  !- Thickness {m}
    0.16,                    !- Conductivity {W/m-K}
    1120,                    !- Density {kg/m3}
    1460;                    !- Specific Heat {J/kg-K}

Material,
    F14 Slate or tile,       !- Name
    VeryRough,               !- Roughness
    0.0127,                  !- Thickness {m}
    1.59,                    !- Conductivity {W/m-K}
    1920,                    !- Density {kg/m3}
    1260;                    !- Specific Heat {J/kg-K}

Material,
    F15 Wood shingles,       !- Name
    VeryRough,               !- Roughness
    0.0064,                  !- Thickness {m}
    0.04,                    !- Conductivity {W/m-K}
    592,                     !- Density {kg/m3}
    1300;                    !- Specific Heat {J/kg-K}

Material,
    F16 Acoustic tile,       !- Name
    MediumSmooth,            !- Roughness
    0.0191,                  !- Thickness {m}
    0.06,                    !- Conductivity {W/m-K}
    368,                     !- Density {kg/m3}
    590;                     !- Specific Heat {J/kg-K}

Material,
    F17 Carpet,              !- Name
    MediumRough,             !- Roughness
    0.0127,                  !- Thickness {m}
    0.06,                    !- Conductivity {W/m-K}
    288,                     !- Density {kg/m3}
    1380;                    !- Specific Heat {J/kg-K}

Material,
    F18 Terrazzo,            !- Name
    Rough,                   !- Roughness
    0.0254,                  !- Thickness {m}
    1.8,                     !- Conductivity {W/m-K}
    2560,                    !- Density {kg/m3}
    790;                     !- Specific Heat {J/kg-K}

Material,
    G01 16mm gypsum board,   !- Name
    MediumSmooth,            !- Roughness
    0.0159,                  !- Thickness {m}
    0.16,                    !- Conductivity {W/m-K}
    800,                     !- Density {kg/m3}
    1090;                    !- Specific Heat {J/kg-K}

Material,
    G01a 19mm gypsum board,  !- Name
    MediumSmooth,            !- Roughness
    0.019,                   !- Thickness {m}
    0.16,                    !- Conductivity {W/m-K}
    800,                     !- Density {kg/m3}
    1090;                    !- Specific Heat {J/kg-K}

Material,
    G02 16mm plywood,        !- Name
    Smooth,                  !- Roughness
    0.0159,                  !- Thickness {m}
    0.12,                    !- Conductivity {W/m-K}
    544,                     !- Density {kg/m3}
    1210;                    !- Specific Heat {J/kg-K}

Material,
    G03 13mm fiberboard sheathing,  !- Name
    Smooth,                  !- Roughness
    0.0127,                  !- Thickness {m}
    0.07,                    !- Conductivity {W/m-K}
    400,                     !- Density {kg/m3}
    1300;                    !- Specific Heat {J/kg-K}

Material,
    G04 13mm wood,           !- Name
    MediumSmooth,            !- Roughness
    0.0127,                  !- Thickness {m}
    0.15,                    !- Conductivity {W/m-K}
    608,                     !- Density {kg/m3}
    1630;                    !- Specific Heat {J/kg-K}

Material,
    G05 25mm wood,           !- Name
    MediumSmooth,            !- Roughness
    0.0254,                  !- Thickness {m}
    0.15,                    !- Conductivity {W/m-K}
    608,                     !- Density {kg/m3}
    1630;                    !- Specific Heat {J/kg-K}

Material,
    G06 50mm wood,           !- Name
    MediumSmooth,            !- Roughness
    0.0508,                  !- Thickness {m}
    0.15,                    !- Conductivity {W/m-K}
    608,                     !- Density {kg/m3}
    1630;                    !- Specific Heat {J/kg-K}

Material,
    G07 100mm wood,          !- Name
    MediumSmooth,            !- Roughness
    0.1016,                  !- Thickness {m}
    0.15,                    !- Conductivity {W/m-K}
    608,                     !- Density {kg/m3}
    1630;                    !- Specific Heat {J/kg-K}

Material,
    I01 25mm insulation board,  !- Name
    MediumRough,             !- Roughness
    0.0254,                  !- Thickness {m}
    0.03,                    !- Conductivity {W/m-K}
    43,                      !- Density {kg/m3}
    1210;                    !- Specific Heat {J/kg-K}

Material,
    I02 50mm insulation board,  !- Name
    MediumRough,             !- Roughness
    0.0508,                  !- Thickness {m}
    0.03,                    !- Conductivity {W/m-K}
    43,                      !- Density {kg/m3}
    1210;                    !- Specific Heat {J/kg-K}

Material,
    I03 75mm insulation board,  !- Name
    MediumRough,             !- Roughness
    0.0762,                  !- Thickness {m}
    0.03,                    !- Conductivity {W/m-K}
    43,                      !- Density {kg/m3}
    1210;                    !- Specific Heat {J/kg-K}

Material,
    I04 89mm batt insulation,!- Name
    VeryRough,               !- Roughness
    0.0894,                  !- Thickness {m}
    0.05,                    !- Conductivity {W/m-K}
    19,                      !- Density {kg/m3}
    960;                     !- Specific Heat {J/kg-K}

Material,
    I05 154mm batt insulation,  !- Name
    VeryRough,               !- Roughness
    0.1544,                  !- Thickness {m}
    0.05,                    !- Conductivity {W/m-K}
    19,                      !- Density {kg/m3}
    960;                     !- Specific Heat {J/kg-K}

Material,
    I06 244mm batt insulation,  !- Name
    VeryRough,               !- Roughness
    0.2438,                  !- Thickness {m}
    0.05,                    !- Conductivity {W/m-K}
    19,                      !- Density {kg/m3}
    960;                     !- Specific Heat {J/kg-K}

Material,
    M01 100mm brick,         !- Name
    MediumRough,             !- Roughness
    0.1016,                  !- Thickness {m}
    0.89,                    !- Conductivity {W/m-K}
    1920,                    !- Density {kg/m3}
    790;                     !- Specific Heat {J/kg-K}

Material,
    M02 150mm lightweight concrete block,  !- Name
    MediumRough,             !- Roughness
    0.1524,                  !- Thickness {m}
    0.49,                    !- Conductivity {W/m-K}
    512,                     !- Density {kg/m3}
    880;                     !- Specific Heat {J/kg-K}

Material,
    M03 200mm lightweight concrete block,  !- Name
    MediumRough,             !- Roughness
    0.2032,                  !- Thickness {m}
    0.5,                     !- Conductivity {W/m-K}
    464,                     !- Density {kg/m3}
    880;                     !- Specific Heat {J/kg-K}

Material,
    M04 300mm lightweight concrete block,  !- Name
    MediumRough,             !- Roughness
    0.3048,                  !- Thickness {m}
    0.71,                    !- Conductivity {W/m-K}
    512,                     !- Density {kg/m3}
    880;                     !- Specific Heat {J/kg-K}

Material,
    M05 200mm concrete block,!- Name
    MediumRough,             !- Roughness
    0.2032,                  !- Thickness {m}
    1.11,                    !- Conductivity {W/m-K}
    800,                     !- Density {kg/m3}
    920;                     !- Specific Heat {J/kg-K}

Material,
    M06 300mm concrete block,!- Name
    MediumRough,             !- Roughness
    0.3048,                  !- Thickness {m}
    1.4,                     !- Conductivity {W/m-K}
    800,                     !- Density {kg/m3}
    920;                     !- Specific Heat {J/kg-K}

Material,
    M07 150mm lightweight concrete block (filled),  !- Name
    MediumRough,             !- Roughness
    0.1524,                  !- Thickness {m}
    0.29,                    !- Conductivity {W/m-K}
    512,                     !- Density {kg/m3}
    880;                     !- Specific Heat {J/kg-K}

Material,
    M08 200mm lightweight concrete block (filled),  !- Name
    MediumRough,             !- Roughness
    0.2032,                  !- Thickness {m}
    0.26,                    !- Conductivity {W/m-K}
    464,                     !- Density {kg/m3}
    880;                     !- Specific Heat {J/kg-K}

Material,
    M09 300mm lightweight concrete block (filled),  !- Name
    MediumRough,             !- Roughness
    0.3048,                  !- Thickness {m}
    0.29,                    !- Conductivity {W/m-K}
    512,                     !- Density {kg/m3}
    880;                     !- Specific Heat {J/kg-K}

Material,
    M10 200mm concrete block (filled),  !- Name
    MediumRough,             !- Roughness
    0.2032,                  !- Thickness {m}
    0.72,                    !- Conductivity {W/m-K}
    800,                     !- Density {kg/m3}
    920;                     !- Specific Heat {J/kg-K}

Material,
    M11 100mm lightweight concrete,  !- Name
    MediumRough,             !- Roughness
    0.1016,                  !- Thickness {m}
    0.53,                    !- Conductivity {W/m-K}
    1280,                    !- Density {kg/m3}
    840;                     !- Specific Heat {J/kg-K}

Material,
    M12 150mm lightweight concrete,  !- Name
    MediumRough,             !- Roughness
    0.1524,                  !- Thickness {m}
    0.53,                    !- Conductivity {W/m-K}
    1280,                    !- Density {kg/m3}
    840;                     !- Specific Heat {J/kg-K}

Material,
    M13 200mm lightweight concrete,  !- Name
    MediumRough,             !- Roughness
    0.2032,                  !- Thickness {m}
    0.53,                    !- Conductivity {W/m-K}
    1280,                    !- Density {kg/m3}
    840;                     !- Specific Heat {J/kg-K}

Material,
    M14a 100mm heavyweight concrete,  !- Name
    MediumRough,             !- Roughness
    0.1016,                  !- Thickness {m}
    1.95,                    !- Conductivity {W/m-K}
    2240,                    !- Density {kg/m3}
    900;                     !- Specific Heat {J/kg-K}

Material,
    M14 150mm heavyweight concrete,  !- Name
    MediumRough,             !- Roughness
    0.1524,                  !- Thickness {m}
    1.95,                    !- Conductivity {W/m-K}
    2240,                    !- Density {kg/m3}
    900;                     !- Specific Heat {J/kg-K}

Material,
    M15 200mm heavyweight concrete,  !- Name
    MediumRough,             !- Roughness
    0.2032,                  !- Thickness {m}
    1.95,                    !- Conductivity {W/m-K}
    2240,                    !- Density {kg/m3}
    900;                     !- Specific Heat {J/kg-K}

Material,
    M16 300mm heavyweight concrete,  !- Name
    MediumRough,             !- Roughness
    0.3048,                  !- Thickness {m}
    1.95,                    !- Conductivity {W/m-K}
    2240,                    !- Density {kg/m3}
    900;                     !- Specific Heat {J/kg-K}

Material,
    M17 50mm lightweight concrete roof ballast,  !- Name
    MediumRough,             !- Roughness
    0.0508,                  !- Thickness {m}
    0.19,                    !- Conductivity {W/m-K}
    640,                     !- Density {kg/m3}
    840;                     !- Specific Heat {J/kg-K}

Material,
    Asbestos-cement board - 3.2mm,  !- Name
    Smooth,                  !- Roughness
    0.0032,                  !- Thickness {m}
    0.58,                    !- Conductivity {W/m-K}
    1900,                    !- Density {kg/m3}
    1000;                    !- Specific Heat {J/kg-K}

Material,
    Asbestos-cement board - 6.4mm,  !- Name
    Smooth,                  !- Roughness
    0.0064,                  !- Thickness {m}
    0.58,                    !- Conductivity {W/m-K}
    1900,                    !- Density {kg/m3}
    1000;                    !- Specific Heat {J/kg-K}

Material,
    Gypsum or plaster board - 9.5mm,  !- Name
    MediumSmooth,            !- Roughness
    0.0095,                  !- Thickness {m}
    0.58,                    !- Conductivity {W/m-K}
    800,                     !- Density {kg/m3}
    1090;                    !- Specific Heat {J/kg-K}

Material,
    Gypsum or plaster board - 2.7mm,  !- Name
    MediumSmooth,            !- Roughness
    0.0027,                  !- Thickness {m}
    0.58,                    !- Conductivity {W/m-K}
    800,                     !- Density {kg/m3}
    1090;                    !- Specific Heat {J/kg-K}

Material,
    Gypsum or plaster board - 5.9mm,  !- Name
    MediumSmooth,            !- Roughness
    0.0059,                  !- Thickness {m}
    0.58,                    !- Conductivity {W/m-K}
    800,                     !- Density {kg/m3}
    1090;                    !- Specific Heat {J/kg-K}

Material,
    Plywood (Douglas Fir) - 6.4mm,  !- Name
    MediumSmooth,            !- Roughness
    0.0064,                  !- Thickness {m}
    0.12,                    !- Conductivity {W/m-K}
    540,                     !- Density {kg/m3}
    1210;                    !- Specific Heat {J/kg-K}

Material,
    Plywood (Douglas Fir) - 9.5mm,  !- Name
    Smooth,                  !- Roughness
    0.0095,                  !- Thickness {m}
    0.12,                    !- Conductivity {W/m-K}
    540,                     !- Density {kg/m3}
    1210;                    !- Specific Heat {J/kg-K}

Material,
    Plywood (Douglas Fir) - 12.7mm,  !- Name
    Smooth,                  !- Roughness
    0.0127,                  !- Thickness {m}
    0.12,                    !- Conductivity {W/m-K}
    540,                     !- Density {kg/m3}
    1210;                    !- Specific Heat {J/kg-K}

Material,
    Plywood (Douglas Fir) - 15.9mm,  !- Name
    Smooth,                  !- Roughness
    0.0159,                  !- Thickness {m}
    0.12,                    !- Conductivity {W/m-K}
    540,                     !- Density {kg/m3}
    1210;                    !- Specific Heat {J/kg-K}

Material,
    Plywood or wood panels - 19.0mm,  !- Name
    Smooth,                  !- Roughness
    0.019,                   !- Thickness {m}
    0.12,                    !- Conductivity {W/m-K}
    540,                     !- Density {kg/m3}
    1210;                    !- Specific Heat {J/kg-K}

Material,
    Sheathing - regular density - 12.7mm,  !- Name
    Smooth,                  !- Roughness
    0.0127,                  !- Thickness {m}
    0.055,                   !- Conductivity {W/m-K}
    290,                     !- Density {kg/m3}
    1300;                    !- Specific Heat {J/kg-K}

Material,
    Sheathing - regular density - 19.8mm,  !- Name
    Smooth,                  !- Roughness
    0.0198,                  !- Thickness {m}
    0.055,                   !- Conductivity {W/m-K}
    290,                     !- Density {kg/m3}
    1300;                    !- Specific Heat {J/kg-K}

Material,
    Sheathing intermediate density - 12.7mm,  !- Name
    Smooth,                  !- Roughness
    0.0127,                  !- Thickness {m}
    0.057,                   !- Conductivity {W/m-K}
    350,                     !- Density {kg/m3}
    1300;                    !- Specific Heat {J/kg-K}

Material,
    Nail-base sheathing - 12.7mm,  !- Name
    Smooth,                  !- Roughness
    0.0127,                  !- Thickness {m}
    0.057,                   !- Conductivity {W/m-K}
    400,                     !- Density {kg/m3}
    1300;                    !- Specific Heat {J/kg-K}

Material,
    Shingle backer - 9.5mm,  !- Name
    Smooth,                  !- Roughness
    0.0095,                  !- Thickness {m}
    0.063,                   !- Conductivity {W/m-K}
    290,                     !- Density {kg/m3}
    1300;                    !- Specific Heat {J/kg-K}

Material,
    Shingle backer - 7.9mm,  !- Name
    Smooth,                  !- Roughness
    0.0079,                  !- Thickness {m}
    0.063,                   !- Conductivity {W/m-K}
    290,                     !- Density {kg/m3}
    1300;                    !- Specific Heat {J/kg-K}

Material,
    Sound deadening board,   !- Name
    Smooth,                  !- Roughness
    0.0127,                  !- Thickness {m}
    0.063,                   !- Conductivity {W/m-K}
    240,                     !- Density {kg/m3}
    1260;                    !- Specific Heat {J/kg-K}

Material,
    Tile and lay-in panels - plain or acoustic - 12.7mm,  !- Name
    MediumSmooth,            !- Roughness
    0.0127,                  !- Thickness {m}
    0.057,                   !- Conductivity {W/m-K}
    290,                     !- Density {kg/m3}
    590;                     !- Specific Heat {J/kg-K}

Material,
    Tile and lay-in panels - plain or acoustic - 19mm,  !- Name
    MediumSmooth,            !- Roughness
    0.019,                   !- Thickness {m}
    0.057,                   !- Conductivity {W/m-K}
    290,                     !- Density {kg/m3}
    590;                     !- Specific Heat {J/kg-K}

Material,
    Laminated paperboard,    !- Name
    MediumSmooth,            !- Roughness
    0.0032,                  !- Thickness {m}
    0.072,                   !- Conductivity {W/m-K}
    480,                     !- Density {kg/m3}
    1380;                    !- Specific Heat {J/kg-K}

Material,
    Homogeneous board from repulped paper,  !- Name
    MediumSmooth,            !- Roughness
    0.0032,                  !- Thickness {m}
    0.072,                   !- Conductivity {W/m-K}
    480,                     !- Density {kg/m3}
    1170;                    !- Specific Heat {J/kg-K}

Material,
    Hardboard Medium density,!- Name
    Smooth,                  !- Roughness
    0.019,                   !- Thickness {m}
    0.105,                   !- Conductivity {W/m-K}
    800,                     !- Density {kg/m3}
    1300;                    !- Specific Heat {J/kg-K}

Material,
    Hardboard High density - service-tempered grade and service grade,  !- Name
    Smooth,                  !- Roughness
    0.019,                   !- Thickness {m}
    0.82,                    !- Conductivity {W/m-K}
    880,                     !- Density {kg/m3}
    1340;                    !- Specific Heat {J/kg-K}

Material,
    Hardboard High density - standard-tempered grade,  !- Name
    Smooth,                  !- Roughness
    0.019,                   !- Thickness {m}
    0.144,                   !- Conductivity {W/m-K}
    1010,                    !- Density {kg/m3}
    1340;                    !- Specific Heat {J/kg-K}

Material,
    Particleboard Low density,  !- Name
    MediumSmooth,            !- Roughness
    0.019,                   !- Thickness {m}
    0.102,                   !- Conductivity {W/m-K}
    590,                     !- Density {kg/m3}
    1300;                    !- Specific Heat {J/kg-K}

Material,
    Particleboard Medium density,  !- Name
    MediumSmooth,            !- Roughness
    0.019,                   !- Thickness {m}
    0.135,                   !- Conductivity {W/m-K}
    800,                     !- Density {kg/m3}
    1300;                    !- Specific Heat {J/kg-K}

Material,
    Particleboard High density,  !- Name
    MediumSmooth,            !- Roughness
    0.019,                   !- Thickness {m}
    0.17,                    !- Conductivity {W/m-K}
    1000,                    !- Density {kg/m3}
    1300;                    !- Specific Heat {J/kg-K}

Material,
    Particleboard Underlayment - 15.9mm,  !- Name
    MediumRough,             !- Roughness
    0.0159,                  !- Thickness {m}
    0.311,                   !- Conductivity {W/m-K}
    640,                     !- Density {kg/m3}
    1210;                    !- Specific Heat {J/kg-K}

Material,
    Waferboard,              !- Name
    MediumSmooth,            !- Roughness
    0.019,                   !- Thickness {m}
    0.091,                   !- Conductivity {W/m-K}
    590,                     !- Density {kg/m3}
    1300;                    !- Specific Heat {J/kg-K}

Material,
    Wood subfloor - 19mm,    !- Name
    MediumSmooth,            !- Roughness
    0.019,                   !- Thickness {m}
    0.115,                   !- Conductivity {W/m-K}
    800,                     !- Density {kg/m3}
    1380;                    !- Specific Heat {J/kg-K}

Material,
    Insulation: Cellular glass - 25mm,  !- Name
    MediumRough,             !- Roughness
    0.025,                   !- Thickness {m}
    0.05,                    !- Conductivity {W/m-K}
    136,                     !- Density {kg/m3}
    750;                     !- Specific Heat {J/kg-K}

Material,
    Insulation: Cellular glass - 50mm,  !- Name
    MediumRough,             !- Roughness
    0.05,                    !- Thickness {m}
    0.05,                    !- Conductivity {W/m-K}
    136,                     !- Density {kg/m3}
    750;                     !- Specific Heat {J/kg-K}

Material,
    Insulation: Cellular glass - 75mm,  !- Name
    MediumRough,             !- Roughness
    0.075,                   !- Thickness {m}
    0.05,                    !- Conductivity {W/m-K}
    136,                     !- Density {kg/m3}
    750;                     !- Specific Heat {J/kg-K}

Material,
    Insulation: Glass fiber - organic bonded - 25mm,  !- Name
    MediumRough,             !- Roughness
    0.025,                   !- Thickness {m}
    0.036,                   !- Conductivity {W/m-K}
    64,                      !- Density {kg/m3}
    960;                     !- Specific Heat {J/kg-K}

Material,
    Insulation: Glass fiber - organic bonded - 50mm,  !- Name
    MediumRough,             !- Roughness
    0.05,                    !- Thickness {m}
    0.036,                   !- Conductivity {W/m-K}
    140,                     !- Density {kg/m3}
    960;                     !- Specific Heat {J/kg-K}

Material,
    Insulation: Glass fiber - organic bonded - 75mm,  !- Name
    MediumRough,             !- Roughness
    0.075,                   !- Thickness {m}
    0.036,                   !- Conductivity {W/m-K}
    140,                     !- Density {kg/m3}
    960;                     !- Specific Heat {J/kg-K}

Material,
    Insulation: Expanded perlite - organic bonded - 25mm,  !- Name
    MediumSmooth,            !- Roughness
    0.025,                   !- Thickness {m}
    0.052,                   !- Conductivity {W/m-K}
    16,                      !- Density {kg/m3}
    1260;                    !- Specific Heat {J/kg-K}

Material,
    Insulation: Expanded rubber (rigid) - 25mm,  !- Name
    MediumRough,             !- Roughness
    0.025,                   !- Thickness {m}
    0.032,                   !- Conductivity {W/m-K}
    72,                      !- Density {kg/m3}
    1680;                    !- Specific Heat {J/kg-K}

Material,
    Insulation: Expanded polystyrene - extruded (smooth skin surface) (CFC-12 exp.),  !- Name
    MediumSmooth,            !- Roughness
    0.025,                   !- Thickness {m}
    0.029,                   !- Conductivity {W/m-K}
    29,                      !- Density {kg/m3}
    1210;                    !- Specific Heat {J/kg-K}

Material,
    Insulation: Expanded polystyrene - extruded (smooth skin surface) (HCFC-142b exp.),  !- Name
    MediumSmooth,            !- Roughness
    0.025,                   !- Thickness {m}
    0.029,                   !- Conductivity {W/m-K}
    29,                      !- Density {kg/m3}
    1210;                    !- Specific Heat {J/kg-K}

Material,
    Insulation: Expanded polystyrene - molded beads - 16kg/m3 density,  !- Name
    VeryRough,               !- Roughness
    0.025,                   !- Thickness {m}
    0.037,                   !- Conductivity {W/m-K}
    16,                      !- Density {kg/m3}
    1210;                    !- Specific Heat {J/kg-K}

Material,
    Insulation: Expanded polystyrene - molded beads - 20kg/m3 density,  !- Name
    VeryRough,               !- Roughness
    0.025,                   !- Thickness {m}
    0.036,                   !- Conductivity {W/m-K}
    20,                      !- Density {kg/m3}
    1210;                    !- Specific Heat {J/kg-K}

Material,
    Insulation: Expanded polystyrene - molded beads - 24kg/m3 density,  !- Name
    VeryRough,               !- Roughness
    0.025,                   !- Thickness {m}
    0.035,                   !- Conductivity {W/m-K}
    24,                      !- Density {kg/m3}
    1210;                    !- Specific Heat {J/kg-K}

Material,
    Insulation: Expanded polystyrene - molded beads - 28 k6/m3 density,  !- Name
    VeryRough,               !- Roughness
    0.025,                   !- Thickness {m}
    0.035,                   !- Conductivity {W/m-K}
    28,                      !- Density {kg/m3}
    1210;                    !- Specific Heat {J/kg-K}

Material,
    Insulation: Expanded polystyrene - molded beads - 32 kg/m3 density,  !- Name
    VeryRough,               !- Roughness
    0.025,                   !- Thickness {m}
    0.033,                   !- Conductivity {W/m-K}
    32,                      !- Density {kg/m3}
    1210;                    !- Specific Heat {J/kg-K}

Material,
    Insulation: Cellular polyurethane/polyisocyanuratei (CFC11 exp.) (unfaced),  !- Name
    Rough,                   !- Roughness
    0.025,                   !- Thickness {m}
    0.0245,                  !- Conductivity {W/m-K}
    24,                      !- Density {kg/m3}
    1590;                    !- Specific Heat {J/kg-K}

Material,
    Insulation: Cellular polyisocyanuratei (CFC-11 exp.) (gaspermeable facers),  !- Name
    Rough,                   !- Roughness
    0.025,                   !- Thickness {m}
    0.0245,                  !- Conductivity {W/m-K}
    32,                      !- Density {kg/m3}
    920;                     !- Specific Heat {J/kg-K}

Material,
    Insulation: Cellular polyisocyanuratej (CFC-11 exp.) (gasimpermeable facers),  !- Name
    Rough,                   !- Roughness
    0.025,                   !- Thickness {m}
    0.02,                    !- Conductivity {W/m-K}
    32,                      !- Density {kg/m3}
    920;                     !- Specific Heat {J/kg-K}

Material,
    Brick - fired clay - 2400 kg/m3 - 102mm,  !- Name
    MediumRough,             !- Roughness
    0.102,                   !- Thickness {m}
    1.34,                    !- Conductivity {W/m-K}
    2400,                    !- Density {kg/m3}
    790;                     !- Specific Heat {J/kg-K}

Material,
    Brick - fired clay - 2240 kg/m3 - 102mm,  !- Name
    MediumRough,             !- Roughness
    0.102,                   !- Thickness {m}
    1.185,                   !- Conductivity {W/m-K}
    2240,                    !- Density {kg/m3}
    790;                     !- Specific Heat {J/kg-K}

Material,
    Brick - fired clay - 2080 kg/m3 - 102mm,  !- Name
    MediumRough,             !- Roughness
    0.102,                   !- Thickness {m}
    1.02,                    !- Conductivity {W/m-K}
    2080,                    !- Density {kg/m3}
    790;                     !- Specific Heat {J/kg-K}

Material,
    Brick - fired clay - 1920 kg/m3 - 102mm,  !- Name
    MediumRough,             !- Roughness
    0.102,                   !- Thickness {m}
    0.895,                   !- Conductivity {W/m-K}
    1920,                    !- Density {kg/m3}
    790;                     !- Specific Heat {J/kg-K}

Material,
    Brick - fired clay - 1760 kg/m3 - 102mm,  !- Name
    MediumRough,             !- Roughness
    0.102,                   !- Thickness {m}
    0.78,                    !- Conductivity {W/m-K}
    1760,                    !- Density {kg/m3}
    790;                     !- Specific Heat {J/kg-K}

Material,
    Brick - fired clay - 1600 kg/m3 - 102mm,  !- Name
    MediumRough,             !- Roughness
    0.102,                   !- Thickness {m}
    0.675,                   !- Conductivity {W/m-K}
    1600,                    !- Density {kg/m3}
    790;                     !- Specific Heat {J/kg-K}

Material,
    Brick - fired clay - 1440 kg/m3 - 102mm,  !- Name
    MediumRough,             !- Roughness
    0.102,                   !- Thickness {m}
    0.57,                    !- Conductivity {W/m-K}
    1440,                    !- Density {kg/m3}
    790;                     !- Specific Heat {J/kg-K}

Material,
    Brick - fired clay - 1280 kg/m3 - 102mm,  !- Name
    MediumRough,             !- Roughness
    0.102,                   !- Thickness {m}
    0.48,                    !- Conductivity {W/m-K}
    1280,                    !- Density {kg/m3}
    790;                     !- Specific Heat {J/kg-K}

Material,
    Brick - fired clay - 1120 kg/m3 - 102mm,  !- Name
    MediumRough,             !- Roughness
    0.102,                   !- Thickness {m}
    0.405,                   !- Conductivity {W/m-K}
    1120,                    !- Density {kg/m3}
    790;                     !- Specific Heat {J/kg-K}

Material,
    Quartzitic and sandstone - 2880 kg/m3 - 13mm,  !- Name
    MediumRough,             !- Roughness
    0.013,                   !- Thickness {m}
    10.4,                    !- Conductivity {W/m-K}
    2880,                    !- Density {kg/m3}
    790;                     !- Specific Heat {J/kg-K}

Material,
    Quartzitic and sandstone - 2560 kg/m3 - 13mm,  !- Name
    MediumRough,             !- Roughness
    0.013,                   !- Thickness {m}
    6.2,                     !- Conductivity {W/m-K}
    2560,                    !- Density {kg/m3}
    790;                     !- Specific Heat {J/kg-K}

Material,
    Quartzitic and sandstone - 2240 kg/m3 - 13mm,  !- Name
    MediumRough,             !- Roughness
    0.013,                   !- Thickness {m}
    3.5,                     !- Conductivity {W/m-K}
    2240,                    !- Density {kg/m3}
    790;                     !- Specific Heat {J/kg-K}

Material,
    Quartzitic and sandstone - 1920 kg/m3 - 13mm,  !- Name
    MediumRough,             !- Roughness
    0.013,                   !- Thickness {m}
    1.9,                     !- Conductivity {W/m-K}
    1920,                    !- Density {kg/m3}
    790;                     !- Specific Heat {J/kg-K}

Material,
    Calcitic - dolomitic - limestone - marble - and granite - 2880 kg/m3 - 13mm,  !- Name
    MediumRough,             !- Roughness
    0.013,                   !- Thickness {m}
    4.3,                     !- Conductivity {W/m-K}
    2880,                    !- Density {kg/m3}
    790;                     !- Specific Heat {J/kg-K}

Material,
    Calcitic - dolomitic - limestone - marble - and granite - 2560 kg/m3 - 13mm,  !- Name
    MediumRough,             !- Roughness
    0.013,                   !- Thickness {m}
    3.2,                     !- Conductivity {W/m-K}
    2560,                    !- Density {kg/m3}
    790;                     !- Specific Heat {J/kg-K}

Material,
    Calcitic - dolomitic - limestone - marble - and granite - 2240 kg/m3 - 13mm,  !- Name
    MediumRough,             !- Roughness
    0.013,                   !- Thickness {m}
    2.3,                     !- Conductivity {W/m-K}
    2240,                    !- Density {kg/m3}
    790;                     !- Specific Heat {J/kg-K}

Material,
    Calcitic - dolomitic - limestone - marble - and granite - 1920 kg/m3 - 13mm,  !- Name
    MediumRough,             !- Roughness
    0.013,                   !- Thickness {m}
    1.6,                     !- Conductivity {W/m-K}
    1920,                    !- Density {kg/m3}
    790;                     !- Specific Heat {J/kg-K}

Material,
    Calcitic - dolomitic - limestone - marble - and granite - 1600 kg/m3 - 13mm,  !- Name
    MediumRough,             !- Roughness
    0.013,                   !- Thickness {m}
    1.1,                     !- Conductivity {W/m-K}
    1600,                    !- Density {kg/m3}
    790;                     !- Specific Heat {J/kg-K}

Material,
    Concrete: Sand and gravel or stone aggregate concretes - 2400 kg/m3 - 51mm,  !- Name
    MediumRough,             !- Roughness
    0.051,                   !- Thickness {m}
    2.15,                    !- Conductivity {W/m-K}
    2400,                    !- Density {kg/m3}
    900;                     !- Specific Heat {J/kg-K}

Material,
    Concrete: Sand and gravel or stone aggregate concretes - 2240 kg/m3 - 51mm,  !- Name
    MediumRough,             !- Roughness
    0.051,                   !- Thickness {m}
    1.95,                    !- Conductivity {W/m-K}
    2240,                    !- Density {kg/m3}
    900;                     !- Specific Heat {J/kg-K}

Material,
    Concrete: Sand and gravel or stone aggregate concretes - 2080 kg/m3 - 51mm,  !- Name
    MediumRough,             !- Roughness
    0.051,                   !- Thickness {m}
    1.45,                    !- Conductivity {W/m-K}
    2080,                    !- Density {kg/m3}
    900;                     !- Specific Heat {J/kg-K}

Material,
    Concrete: Limestone concretes - 2240 kg/m3 - 51mm,  !- Name
    MediumRough,             !- Roughness
    0.051,                   !- Thickness {m}
    1.6,                     !- Conductivity {W/m-K}
    2240,                    !- Density {kg/m3}
    900;                     !- Specific Heat {J/kg-K}

Material,
    Concrete: Limestone concretes - 1920 kg/m3 - 51mm,  !- Name
    MediumRough,             !- Roughness
    0.051,                   !- Thickness {m}
    1.14,                    !- Conductivity {W/m-K}
    1920,                    !- Density {kg/m3}
    900;                     !- Specific Heat {J/kg-K}

Material,
    Concrete: Limestone concretes - 1600 kg/m3 - 51mm,  !- Name
    MediumRough,             !- Roughness
    0.051,                   !- Thickness {m}
    0.79,                    !- Conductivity {W/m-K}
    1600,                    !- Density {kg/m3}
    900;                     !- Specific Heat {J/kg-K}

Material,
    Concrete: Gypsum-fiber concrete (87.5% gypsum - 12.5% wood chips) - 51mm,  !- Name
    MediumRough,             !- Roughness
    0.051,                   !- Thickness {m}
    0.24,                    !- Conductivity {W/m-K}
    816,                     !- Density {kg/m3}
    880;                     !- Specific Heat {J/kg-K}

Material,
    Concrete: Cement/lime - mortar - and stucco - 1920 kg/m3 - 51mm,  !- Name
    MediumRough,             !- Roughness
    0.051,                   !- Thickness {m}
    1.4,                     !- Conductivity {W/m-K}
    1920,                    !- Density {kg/m3}
    900;                     !- Specific Heat {J/kg-K}

Material,
    Concrete: Cement/lime - mortar - and stucco - 1600 kg/m3 - 51mm,  !- Name
    MediumRough,             !- Roughness
    0.051,                   !- Thickness {m}
    0.97,                    !- Conductivity {W/m-K}
    1600,                    !- Density {kg/m3}
    900;                     !- Specific Heat {J/kg-K}

Material,
    Concrete: Cement/lime - mortar - and stucco - 1280 kg/m3 - 51mm,  !- Name
    MediumRough,             !- Roughness
    0.051,                   !- Thickness {m}
    0.65,                    !- Conductivity {W/m-K}
    1280,                    !- Density {kg/m3}
    900;                     !- Specific Heat {J/kg-K}

Material,
    Concrete: Expanded shale - clay - slate - expanded slags - cinders - pumice - 1920 kg/m3 - 51mm,  !- Name
    MediumRough,             !- Roughness
    0.051,                   !- Thickness {m}
    1.1,                     !- Conductivity {W/m-K}
    1920,                    !- Density {kg/m3}
    840;                     !- Specific Heat {J/kg-K}

Material,
    Concrete: Expanded shale - clay - slate - expanded slags - cinders - pumice - 1600 kg/m3 - 51mm,  !- Name
    MediumRough,             !- Roughness
    0.051,                   !- Thickness {m}
    0.785,                   !- Conductivity {W/m-K}
    1600,                    !- Density {kg/m3}
    840;                     !- Specific Heat {J/kg-K}

Material,
    Concrete: Expanded shale - clay - slate - expanded slags - cinders - pumice - 1280 kg/m3 - 51mm,  !- Name
    MediumRough,             !- Roughness
    0.051,                   !- Thickness {m}
    0.535,                   !- Conductivity {W/m-K}
    1280,                    !- Density {kg/m3}
    840;                     !- Specific Heat {J/kg-K}

Material,
    Concrete: Expanded shale - clay - slate - expanded slags - cinders - pumice - 960 kg/m3 - 51mm,  !- Name
    MediumRough,             !- Roughness
    0.051,                   !- Thickness {m}
    0.33,                    !- Conductivity {W/m-K}
    960,                     !- Density {kg/m3}
    840;                     !- Specific Heat {J/kg-K}

Material,
    Concrete: Expanded shale - clay - slate - expanded slags - cinders - pumice - 640 kg/m3 - 51mm,  !- Name
    MediumRough,             !- Roughness
    0.051,                   !- Thickness {m}
    0.18,                    !- Conductivity {W/m-K}
    640,                     !- Density {kg/m3}
    840;                     !- Specific Heat {J/kg-K}

Material,
    Concrete: Perlite - vermiculite - and polystyrene beads - 800 kg/m3 - 51mm,  !- Name
    MediumRough,             !- Roughness
    0.051,                   !- Thickness {m}
    0.265,                   !- Conductivity {W/m-K}
    800,                     !- Density {kg/m3}
    795;                     !- Specific Heat {J/kg-K}

Material,
    Concrete: Perlite - vermiculite - and polystyrene beads - 640 kg/m3 - 51mm,  !- Name
    MediumRough,             !- Roughness
    0.051,                   !- Thickness {m}
    0.21,                    !- Conductivity {W/m-K}
    640,                     !- Density {kg/m3}
    795;                     !- Specific Heat {J/kg-K}

Material,
    Concrete: Perlite - vermiculite - and polystyrene beads - 480 kg/m3 - 51mm,  !- Name
    MediumRough,             !- Roughness
    0.051,                   !- Thickness {m}
    0.16,                    !- Conductivity {W/m-K}
    480,                     !- Density {kg/m3}
    795;                     !- Specific Heat {J/kg-K}

Material,
    Concrete: Perlite - vermiculite - and polystyrene beads - 320 kg/m3 - 51mm,  !- Name
    MediumRough,             !- Roughness
    0.051,                   !- Thickness {m}
    0.12,                    !- Conductivity {W/m-K}
    320,                     !- Density {kg/m3}
    795;                     !- Specific Heat {J/kg-K}

Material,
    Concrete: Foam concretes - 1920 kg/m3 - 51mm,  !- Name
    MediumRough,             !- Roughness
    0.051,                   !- Thickness {m}
    0.75,                    !- Conductivity {W/m-K}
    1920,                    !- Density {kg/m3}
    900;                     !- Specific Heat {J/kg-K}

Material,
    Concrete: Foam concretes - 1600 kg/m3 - 51mm,  !- Name
    MediumRough,             !- Roughness
    0.051,                   !- Thickness {m}
    0.6,                     !- Conductivity {W/m-K}
    1600,                    !- Density {kg/m3}
    900;                     !- Specific Heat {J/kg-K}

Material,
    Concrete: Foam concretes - 1280 kg/m3 - 51mm,  !- Name
    MediumRough,             !- Roughness
    0.051,                   !- Thickness {m}
    0.44,                    !- Conductivity {W/m-K}
    1280,                    !- Density {kg/m3}
    900;                     !- Specific Heat {J/kg-K}

Material,
    Concrete: Foam concretes - 1120 kg/m3 - 51mm,  !- Name
    MediumRough,             !- Roughness
    0.051,                   !- Thickness {m}
    0.36,                    !- Conductivity {W/m-K}
    1120,                    !- Density {kg/m3}
    900;                     !- Specific Heat {J/kg-K}

Material,
    Concrete: Foam concretes and cellular concretes - 960 kg/m3 - 51mm,  !- Name
    MediumRough,             !- Roughness
    0.051,                   !- Thickness {m}
    0.3,                     !- Conductivity {W/m-K}
    960,                     !- Density {kg/m3}
    900;                     !- Specific Heat {J/kg-K}

Material,
    Concrete: Foam concretes and cellular concretes - 640 kg/m3 - 51mm,  !- Name
    MediumRough,             !- Roughness
    0.051,                   !- Thickness {m}
    0.2,                     !- Conductivity {W/m-K}
    640,                     !- Density {kg/m3}
    900;                     !- Specific Heat {J/kg-K}

Material,
    Concrete: Foam concretes and cellular concretes - 320 kg/m3 - 51mm,  !- Name
    MediumRough,             !- Roughness
    0.051,                   !- Thickness {m}
    0.12,                    !- Conductivity {W/m-K}
    320,                     !- Density {kg/m3}
    900;                     !- Specific Heat {J/kg-K}

Material,
    Concrete: Sand and gravel or stone aggregate concretes - 2400 kg/m3 - 102mm,  !- Name
    MediumRough,             !- Roughness
    0.102,                   !- Thickness {m}
    2.15,                    !- Conductivity {W/m-K}
    2400,                    !- Density {kg/m3}
    900;                     !- Specific Heat {J/kg-K}

Material,
    Concrete: Sand and gravel or stone aggregate concretes - 2240 kg/m3 - 102mm,  !- Name
    MediumRough,             !- Roughness
    0.102,                   !- Thickness {m}
    1.95,                    !- Conductivity {W/m-K}
    2240,                    !- Density {kg/m3}
    900;                     !- Specific Heat {J/kg-K}

Material,
    Concrete: Sand and gravel or stone aggregate concretes - 2080 kg/m3 - 102mm,  !- Name
    MediumRough,             !- Roughness
    0.102,                   !- Thickness {m}
    1.45,                    !- Conductivity {W/m-K}
    2080,                    !- Density {kg/m3}
    900;                     !- Specific Heat {J/kg-K}

Material,
    Concrete: Limestone concretes - 2240 kg/m3 - 102mm,  !- Name
    MediumRough,             !- Roughness
    0.102,                   !- Thickness {m}
    1.6,                     !- Conductivity {W/m-K}
    2240,                    !- Density {kg/m3}
    900;                     !- Specific Heat {J/kg-K}

Material,
    Concrete: Limestone concretes - 1920 kg/m3 - 102mm,  !- Name
    MediumRough,             !- Roughness
    0.102,                   !- Thickness {m}
    1.14,                    !- Conductivity {W/m-K}
    1920,                    !- Density {kg/m3}
    900;                     !- Specific Heat {J/kg-K}

Material,
    Concrete: Limestone concretes - 1600 kg/m3 - 102mm,  !- Name
    MediumRough,             !- Roughness
    0.102,                   !- Thickness {m}
    0.79,                    !- Conductivity {W/m-K}
    1600,                    !- Density {kg/m3}
    900;                     !- Specific Heat {J/kg-K}

Material,
    Concrete: Gypsum-fiber concrete (87.5% gypsum - 12.5% wood chips) - 102mm,  !- Name
    MediumRough,             !- Roughness
    0.102,                   !- Thickness {m}
    0.24,                    !- Conductivity {W/m-K}
    816,                     !- Density {kg/m3}
    880;                     !- Specific Heat {J/kg-K}

Material,
    Concrete: Cement/lime - mortar - and stucco - 1920 kg/m3 - 102mm,  !- Name
    MediumRough,             !- Roughness
    0.102,                   !- Thickness {m}
    1.4,                     !- Conductivity {W/m-K}
    1920,                    !- Density {kg/m3}
    900;                     !- Specific Heat {J/kg-K}

Material,
    Concrete: Cement/lime - mortar - and stucco - 1600 kg/m3 - 102mm,  !- Name
    MediumRough,             !- Roughness
    0.102,                   !- Thickness {m}
    0.97,                    !- Conductivity {W/m-K}
    1600,                    !- Density {kg/m3}
    900;                     !- Specific Heat {J/kg-K}

Material,
    Concrete: Cement/lime - mortar - and stucco - 1280 kg/m3 - 102mm,  !- Name
    MediumRough,             !- Roughness
    0.102,                   !- Thickness {m}
    0.65,                    !- Conductivity {W/m-K}
    1280,                    !- Density {kg/m3}
    900;                     !- Specific Heat {J/kg-K}

Material,
    Concrete: Expanded shale - clay - slate - expanded slags - cinders - pumice - 1920 kg/m3 - 102mm,  !- Name
    MediumRough,             !- Roughness
    0.102,                   !- Thickness {m}
    1.1,                     !- Conductivity {W/m-K}
    1920,                    !- Density {kg/m3}
    840;                     !- Specific Heat {J/kg-K}

Material,
    Concrete: Expanded shale - clay - slate - expanded slags - cinders - pumice - 1600 kg/m3 - 102mm,  !- Name
    MediumRough,             !- Roughness
    0.102,                   !- Thickness {m}
    0.785,                   !- Conductivity {W/m-K}
    1600,                    !- Density {kg/m3}
    840;                     !- Specific Heat {J/kg-K}

Material,
    Concrete: Expanded shale - clay - slate - expanded slags - cinders - pumice - 1280 kg/m3 - 102mm,  !- Name
    MediumRough,             !- Roughness
    0.102,                   !- Thickness {m}
    0.535,                   !- Conductivity {W/m-K}
    1280,                    !- Density {kg/m3}
    840;                     !- Specific Heat {J/kg-K}

Material,
    Concrete: Expanded shale - clay - slate - expanded slags - cinders - pumice - 960 kg/m3 - 102mm,  !- Name
    MediumRough,             !- Roughness
    0.102,                   !- Thickness {m}
    0.33,                    !- Conductivity {W/m-K}
    960,                     !- Density {kg/m3}
    840;                     !- Specific Heat {J/kg-K}

Material,
    Concrete: Expanded shale - clay - slate - expanded slags - cinders - pumice - 640 kg/m3 - 102mm,  !- Name
    MediumRough,             !- Roughness
    0.102,                   !- Thickness {m}
    0.18,                    !- Conductivity {W/m-K}
    640,                     !- Density {kg/m3}
    840;                     !- Specific Heat {J/kg-K}

Material,
    Concrete: Perlite - vermiculite - and polystyrene beads - 800 kg/m3 - 102mm,  !- Name
    MediumRough,             !- Roughness
    0.102,                   !- Thickness {m}
    0.265,                   !- Conductivity {W/m-K}
    800,                     !- Density {kg/m3}
    795;                     !- Specific Heat {J/kg-K}

Material,
    Concrete: Perlite - vermiculite - and polystyrene beads - 640 kg/m3 - 102mm,  !- Name
    MediumRough,             !- Roughness
    0.102,                   !- Thickness {m}
    0.21,                    !- Conductivity {W/m-K}
    640,                     !- Density {kg/m3}
    795;                     !- Specific Heat {J/kg-K}

Material,
    Concrete: Perlite - vermiculite - and polystyrene beads - 480 kg/m3 - 102mm,  !- Name
    MediumRough,             !- Roughness
    0.102,                   !- Thickness {m}
    0.16,                    !- Conductivity {W/m-K}
    480,                     !- Density {kg/m3}
    795;                     !- Specific Heat {J/kg-K}

Material,
    Concrete: Perlite - vermiculite - and polystyrene beads - 320 kg/m3 - 102mm,  !- Name
    MediumRough,             !- Roughness
    0.102,                   !- Thickness {m}
    0.12,                    !- Conductivity {W/m-K}
    320,                     !- Density {kg/m3}
    795;                     !- Specific Heat {J/kg-K}

Material,
    Concrete: Foam concretes - 1920 kg/m3 - 102mm,  !- Name
    MediumRough,             !- Roughness
    0.102,                   !- Thickness {m}
    0.75,                    !- Conductivity {W/m-K}
    1920,                    !- Density {kg/m3}
    900;                     !- Specific Heat {J/kg-K}

Material,
    Concrete: Foam concretes - 1600 kg/m3 - 102mm,  !- Name
    MediumRough,             !- Roughness
    0.102,                   !- Thickness {m}
    0.6,                     !- Conductivity {W/m-K}
    1600,                    !- Density {kg/m3}
    900;                     !- Specific Heat {J/kg-K}

Material,
    Concrete: Foam concretes - 1280 kg/m3 - 102mm,  !- Name
    MediumRough,             !- Roughness
    0.102,                   !- Thickness {m}
    0.44,                    !- Conductivity {W/m-K}
    1280,                    !- Density {kg/m3}
    900;                     !- Specific Heat {J/kg-K}

Material,
    Concrete: Foam concretes - 1120 kg/m3 - 102mm,  !- Name
    MediumRough,             !- Roughness
    0.102,                   !- Thickness {m}
    0.36,                    !- Conductivity {W/m-K}
    1120,                    !- Density {kg/m3}
    900;                     !- Specific Heat {J/kg-K}

Material,
    Concrete: Foam concretes and cellular concretes - 960 kg/m3 - 102mm,  !- Name
    MediumRough,             !- Roughness
    0.102,                   !- Thickness {m}
    0.3,                     !- Conductivity {W/m-K}
    960,                     !- Density {kg/m3}
    900;                     !- Specific Heat {J/kg-K}

Material,
    Concrete: Foam concretes and cellular concretes - 640 kg/m3 - 102mm,  !- Name
    MediumRough,             !- Roughness
    0.102,                   !- Thickness {m}
    0.2,                     !- Conductivity {W/m-K}
    640,                     !- Density {kg/m3}
    900;                     !- Specific Heat {J/kg-K}

Material,
    Concrete: Foam concretes and cellular concretes - 320 kg/m3 - 102mm,  !- Name
    MediumRough,             !- Roughness
    0.102,                   !- Thickness {m}
    0.12,                    !- Conductivity {W/m-K}
    320,                     !- Density {kg/m3}
    900;                     !- Specific Heat {J/kg-K}

Material,
    Hardwood - 12.9mm,       !- Name
    MediumSmooth,            !- Roughness
    0.0129,                  !- Thickness {m}
    0.167,                   !- Conductivity {W/m-K}
    680,                     !- Density {kg/m3}
    1630;                    !- Specific Heat {J/kg-K}

Material,
    Hardwood - 19mm,         !- Name
    MediumSmooth,            !- Roughness
    0.019,                   !- Thickness {m}
    0.167,                   !- Conductivity {W/m-K}
    680,                     !- Density {kg/m3}
    1630;                    !- Specific Heat {J/kg-K}

Material,
    Hardwood - 25mm,         !- Name
    MediumSmooth,            !- Roughness
    0.025,                   !- Thickness {m}
    0.167,                   !- Conductivity {W/m-K}
    680,                     !- Density {kg/m3}
    1630;                    !- Specific Heat {J/kg-K}

Material,
    Oak - 25mm,              !- Name
    MediumSmooth,            !- Roughness
    0.025,                   !- Thickness {m}
    0.17,                    !- Conductivity {W/m-K}
    704,                     !- Density {kg/m3}
    1630;                    !- Specific Heat {J/kg-K}

Material,
    Birch - 25mm,            !- Name
    MediumSmooth,            !- Roughness
    0.025,                   !- Thickness {m}
    0.172,                   !- Conductivity {W/m-K}
    704,                     !- Density {kg/m3}
    1630;                    !- Specific Heat {J/kg-K}

Material,
    Maple - 25mm,            !- Name
    MediumSmooth,            !- Roughness
    0.025,                   !- Thickness {m}
    0.164,                   !- Conductivity {W/m-K}
    671,                     !- Density {kg/m3}
    1630;                    !- Specific Heat {J/kg-K}

Material,
    Ash - 25mm,              !- Name
    MediumSmooth,            !- Roughness
    0.025,                   !- Thickness {m}
    0.159,                   !- Conductivity {W/m-K}
    642,                     !- Density {kg/m3}
    1630;                    !- Specific Heat {J/kg-K}

Material,
    Softwood - 12.9mm,       !- Name
    MediumSmooth,            !- Roughness
    0.0129,                  !- Thickness {m}
    0.129,                   !- Conductivity {W/m-K}
    496,                     !- Density {kg/m3}
    1630;                    !- Specific Heat {J/kg-K}

Material,
    Softwood - 19mm,         !- Name
    MediumSmooth,            !- Roughness
    0.019,                   !- Thickness {m}
    0.129,                   !- Conductivity {W/m-K}
    496,                     !- Density {kg/m3}
    1630;                    !- Specific Heat {J/kg-K}

Material,
    Softwood - 25mm,         !- Name
    MediumSmooth,            !- Roughness
    0.025,                   !- Thickness {m}
    0.129,                   !- Conductivity {W/m-K}
    496,                     !- Density {kg/m3}
    1630;                    !- Specific Heat {J/kg-K}

Material,
    Southern Pine - 25mm,    !- Name
    MediumSmooth,            !- Roughness
    0.025,                   !- Thickness {m}
    0.153,                   !- Conductivity {W/m-K}
    615,                     !- Density {kg/m3}
    1630;                    !- Specific Heat {J/kg-K}

Material,
    Douglas Fir-Larch - 25mm,!- Name
    MediumSmooth,            !- Roughness
    0.025,                   !- Thickness {m}
    0.141,                   !- Conductivity {W/m-K}
    559,                     !- Density {kg/m3}
    1630;                    !- Specific Heat {J/kg-K}

Material,
    Southern Cypress - 25mm, !- Name
    MediumSmooth,            !- Roughness
    0.025,                   !- Thickness {m}
    0.131,                   !- Conductivity {W/m-K}
    508,                     !- Density {kg/m3}
    1630;                    !- Specific Heat {J/kg-K}

Material,
    Hem-Fir - Spruce-Pine-Fir - 25mm,  !- Name
    MediumSmooth,            !- Roughness
    0.025,                   !- Thickness {m}
    0.119,                   !- Conductivity {W/m-K}
    447,                     !- Density {kg/m3}
    1630;                    !- Specific Heat {J/kg-K}

Material,
    West Coast Woods - Cedars - 25mm,  !- Name
    MediumSmooth,            !- Roughness
    0.025,                   !- Thickness {m}
    0.114,                   !- Conductivity {W/m-K}
    425,                     !- Density {kg/m3}
    1630;                    !- Specific Heat {J/kg-K}

Material,
    California Redwood - 25mm,  !- Name
    MediumSmooth,            !- Roughness
    0.025,                   !- Thickness {m}
    0.113,                   !- Conductivity {W/m-K}
    420,                     !- Density {kg/m3}
    1630;                    !- Specific Heat {J/kg-K}

Material,
    Concrete Block: Limestone Aggregrate: 200mm - 16.3 kg - 2 cores,  !- Name
    MediumRough,             !- Roughness
    0.2,                     !- Thickness {m}
    1.13,                    !- Conductivity {W/m-K}
    2210,                    !- Density {kg/m3}
    920;                     !- Specific Heat {J/kg-K}

Material,
    Concrete Block: Limestone Aggregrate: 200mm - 16.3 kg - 2 cores - perlite filled cores,  !- Name
    MediumRough,             !- Roughness
    0.2,                     !- Thickness {m}
    1.13,                    !- Conductivity {W/m-K}
    2210,                    !- Density {kg/m3}
    920;                     !- Specific Heat {J/kg-K}

Material,
    Concrete Block: Limestone Aggregrate: 300mm - 25 kg - 2 cores,  !- Name
    MediumRough,             !- Roughness
    0.3,                     !- Thickness {m}
    1.13,                    !- Conductivity {W/m-K}
    2210,                    !- Density {kg/m3}
    920;                     !- Specific Heat {J/kg-K}

Material,
    Concrete Block: Limestone Aggregrate: 300mm - 25 kg - 2 cores - perlite filled cores,  !- Name
    MediumRough,             !- Roughness
    0.3,                     !- Thickness {m}
    1.13,                    !- Conductivity {W/m-K}
    2210,                    !- Density {kg/m3}
    920;                     !- Specific Heat {J/kg-K}

Material,
    Concrete Block: Sand and Gravel Aggregrate: 15-16 kg - 2 or 3 cores,  !- Name
    MediumRough,             !- Roughness
    0.2,                     !- Thickness {m}
    1.13,                    !- Conductivity {W/m-K}
    2180,                    !- Density {kg/m3}
    920;                     !- Specific Heat {J/kg-K}

Material,
    Concrete Block: Sand and Gravel Aggregrate: 15-16 kg - 2 or 3 cores - perlite filled cores,  !- Name
    MediumRough,             !- Roughness
    0.2,                     !- Thickness {m}
    1.13,                    !- Conductivity {W/m-K}
    2180,                    !- Density {kg/m3}
    920;                     !- Specific Heat {J/kg-K}

Material,
    Concrete Block: Sand and Gravel Aggregrate: 15-16 kg - 2 or 3 cores - vermiculite filled cores,  !- Name
    MediumRough,             !- Roughness
    0.2,                     !- Thickness {m}
    1.13,                    !- Conductivity {W/m-K}
    2180,                    !- Density {kg/m3}
    920;                     !- Specific Heat {J/kg-K}

Material,
    Concrete Block: Sand and Gravel Aggregrate: 22.7 kg - 2 cores,  !- Name
    MediumRough,             !- Roughness
    0.3,                     !- Thickness {m}
    1.13,                    !- Conductivity {W/m-K}
    2000,                    !- Density {kg/m3}
    920;                     !- Specific Heat {J/kg-K}

Material,
    Concrete Block: Medium Mass Aggregate: 2 or 3 cores,  !- Name
    MediumRough,             !- Roughness
    0.3,                     !- Thickness {m}
    1.13,                    !- Conductivity {W/m-K}
    1790,                    !- Density {kg/m3}
    920;                     !- Specific Heat {J/kg-K}

Material,
    Concrete Block: Medium Mass Aggregate: 2 or 3 cores - perlite filled cores,  !- Name
    MediumRough,             !- Roughness
    0.3,                     !- Thickness {m}
    1.13,                    !- Conductivity {W/m-K}
    1790,                    !- Density {kg/m3}
    920;                     !- Specific Heat {J/kg-K}

Material,
    Concrete Block: Medium Mass Aggregate: 2 or 3 cores - vermiculite filled cores,  !- Name
    MediumRough,             !- Roughness
    0.3,                     !- Thickness {m}
    1.13,                    !- Conductivity {W/m-K}
    1790,                    !- Density {kg/m3}
    920;                     !- Specific Heat {J/kg-K}

Material,
    Concrete Block: Medium Mass Aggregate: 2 or 3 cores - molded EPS (beads) filled cores,  !- Name
    MediumRough,             !- Roughness
    0.3,                     !- Thickness {m}
    1.13,                    !- Conductivity {W/m-K}
    1790,                    !- Density {kg/m3}
    920;                     !- Specific Heat {J/kg-K}

Material,
    Concrete Block: Medium Mass Aggregate: 2 or 3 cores - molded EPS inserts in cores,  !- Name
    MediumRough,             !- Roughness
    0.3,                     !- Thickness {m}
    1.13,                    !- Conductivity {W/m-K}
    1790,                    !- Density {kg/m3}
    920;                     !- Specific Heat {J/kg-K}

Material,
    Concrete Block: Low Mass Aggregate: 7.3-7.7 kg - 2 or 3 cores,  !- Name
    MediumRough,             !- Roughness
    0.15,                    !- Thickness {m}
    0.33,                    !- Conductivity {W/m-K}
    1390,                    !- Density {kg/m3}
    880;                     !- Specific Heat {J/kg-K}

Material,
    Concrete Block: Low Mass Aggregate: 7.3-7.7 kg - 2 or 3 cores - perlite filled cores,  !- Name
    MediumRough,             !- Roughness
    0.15,                    !- Thickness {m}
    0.33,                    !- Conductivity {W/m-K}
    1390,                    !- Density {kg/m3}
    880;                     !- Specific Heat {J/kg-K}

Material,
    Concrete Block: Low Mass Aggregate: 7.3-7.7 kg - 2 or 3 cores - vermiculite filled cores,  !- Name
    MediumRough,             !- Roughness
    0.15,                    !- Thickness {m}
    0.33,                    !- Conductivity {W/m-K}
    1390,                    !- Density {kg/m3}
    880;                     !- Specific Heat {J/kg-K}

Material,
    Concrete Block: Low Mass Aggregate: 8.6-10.0 kg,  !- Name
    MediumRough,             !- Roughness
    0.2,                     !- Thickness {m}
    0.33,                    !- Conductivity {W/m-K}
    1380,                    !- Density {kg/m3}
    880;                     !- Specific Heat {J/kg-K}

Material,
    Concrete Block: Low Mass Aggregate: 8.6-10.0 kg - perlite filled cores,  !- Name
    MediumRough,             !- Roughness
    0.2,                     !- Thickness {m}
    0.33,                    !- Conductivity {W/m-K}
    1380,                    !- Density {kg/m3}
    880;                     !- Specific Heat {J/kg-K}

Material,
    Concrete Block: Low Mass Aggregate: 8.6-10.0 kg - vermiculite filled cores,  !- Name
    MediumRough,             !- Roughness
    0.2,                     !- Thickness {m}
    0.33,                    !- Conductivity {W/m-K}
    1380,                    !- Density {kg/m3}
    880;                     !- Specific Heat {J/kg-K}

Material,
    Concrete Block: Low Mass Aggregate: 8.6-10.0 kg - molded EPS (beads) filled cores,  !- Name
    MediumRough,             !- Roughness
    0.2,                     !- Thickness {m}
    0.33,                    !- Conductivity {W/m-K}
    1380,                    !- Density {kg/m3}
    880;                     !- Specific Heat {J/kg-K}

Material,
    Concrete Block: Low Mass Aggregate: 8.6-10.0 kg - UF foam filled cores,  !- Name
    MediumRough,             !- Roughness
    0.2,                     !- Thickness {m}
    0.33,                    !- Conductivity {W/m-K}
    1380,                    !- Density {kg/m3}
    880;                     !- Specific Heat {J/kg-K}

Material,
    Concrete Block: Low Mass Aggregate: 8.6-10.0 kg - molded EPS inserts in cores,  !- Name
    MediumRough,             !- Roughness
    0.2,                     !- Thickness {m}
    0.33,                    !- Conductivity {W/m-K}
    1380,                    !- Density {kg/m3}
    880;                     !- Specific Heat {J/kg-K}

Material,
    Concrete Block: Low Mass Aggregate: 14.5-16.3 kg - 2 or 3 cores,  !- Name
    MediumRough,             !- Roughness
    0.3,                     !- Thickness {m}
    0.33,                    !- Conductivity {W/m-K}
    1440,                    !- Density {kg/m3}
    880;                     !- Specific Heat {J/kg-K}

Material,
    Concrete Block: Low Mass Aggregate: 14.5-16.3 kg - 2 or 3 cores - perlite filled cores,  !- Name
    MediumRough,             !- Roughness
    0.3,                     !- Thickness {m}
    0.33,                    !- Conductivity {W/m-K}
    1440,                    !- Density {kg/m3}
    880;                     !- Specific Heat {J/kg-K}

Material,
    Concrete Block: Low Mass Aggregate: 14.5-16.3 kg - 2 or 3 cores - vermiculite filled cores,  !- Name
    MediumRough,             !- Roughness
    0.3,                     !- Thickness {m}
    0.33,                    !- Conductivity {W/m-K}
    1440,                    !- Density {kg/m3}
    880;                     !- Specific Heat {J/kg-K}

! ==================================================================
Material,
    PLASTERBOARD-1,          !- Name
    MediumSmooth,            !- Roughness
    0.01200,                 !- Thickness {m}
    0.16000,                 !- Conductivity {W/m-K}
    950.000,                 !- Density {kg/m3}
    840.00,                  !- Specific Heat {J/kg-K}
    0.900000,                !- Thermal Absorptance
    0.600000,                !- Solar Absorptance
    0.600000;                !- Visible Absorptance

Material,
    FIBERGLASS QUILT-1,      !- Name
    Rough,                   !- Roughness
    0.066,                   !- Thickness {m}
    0.040,                   !- Conductivity {W/m-K}
    12.000,                  !- Density {kg/m3}
    840.00,                  !- Specific Heat {J/kg-K}
    0.900000,                !- Thermal Absorptance
    0.600000,                !- Solar Absorptance
    0.600000;                !- Visible Absorptance

Material,
    WOOD SIDING-1,           !- Name
    Rough,                   !- Roughness
    0.00900,                 !- Thickness {m}
    0.14000,                 !- Conductivity {W/m-K}
    530.000,                 !- Density {kg/m3}
    900.00,                  !- Specific Heat {J/kg-K}
    0.900000,                !- Thermal Absorptance
    0.600000,                !- Solar Absorptance
    0.600000;                !- Visible Absorptance

Material,
    PLASTERBOARD-2,          !- Name
    Rough,                   !- Roughness
    0.01000,                 !- Thickness {m}
    0.16000,                 !- Conductivity {W/m-K}
    950.000,                 !- Density {kg/m3}
    840.00,                  !- Specific Heat {J/kg-K}
    0.900000,                !- Thermal Absorptance
    0.600000,                !- Solar Absorptance
    0.600000;                !- Visible Absorptance

Material,
    FIBERGLASS QUILT-2,      !- Name
    Rough,                   !- Roughness
    0.1118,                  !- Thickness {m}
    0.040,                   !- Conductivity {W/m-K}
    12.000,                  !- Density {kg/m3}
    840.00,                  !- Specific Heat {J/kg-K}
    0.900000,                !- Thermal Absorptance
    0.600000,                !- Solar Absorptance
    0.600000;                !- Visible Absorptance

Material,
    ROOF DECK,               !- Name
    Rough,                   !- Roughness
    0.01900,                 !- Thickness {m}
    0.14000,                 !- Conductivity {W/m-K}
    530.000,                 !- Density {kg/m3}
    900.00,                  !- Specific Heat {J/kg-K}
    0.900000,                !- Thermal Absorptance
    0.600000,                !- Solar Absorptance
    0.600000;                !- Visible Absorptance

Material,
    HF-C5,                   !- Name
    MediumRough,             !- Roughness
    0.1015000,               !- Thickness {m}
    1.729600,                !- Conductivity {W/m-K}
    2243.000,                !- Density {kg/m3}
    837.0000,                !- Specific Heat {J/kg-K}
    0.9000000,               !- Thermal Absorptance
    0.6500000,               !- Solar Absorptance
    0.6500000;               !- Visible Absorptance


!-   ===========  ALL OBJECTS IN CLASS: MATERIAL:NOMASS ===========

Material:NoMass,
    Vaporpermeable felt,     !- Name
    Rough,                   !- Roughness
    0.011;                   !- Thermal Resistance {m2-K/W}

Material:NoMass,
    Vaporseal - 2 layers of mopped 0.73 kg/m2 felt,  !- Name
    Rough,                   !- Roughness
    0.21;                    !- Thermal Resistance {m2-K/W}

Material:NoMass,
    Vaporseal - plastic film,!- Name
    Rough,                   !- Roughness
    0.002;                   !- Thermal Resistance {m2-K/W}

Material:NoMass,
    Carpet and fibrous pad,  !- Name
    Rough,                   !- Roughness
    0.37;                    !- Thermal Resistance {m2-K/W}

Material:NoMass,
    Carpet and rubber pad,   !- Name
    Rough,                   !- Roughness
    0.22;                    !- Thermal Resistance {m2-K/W}

Material:NoMass,
    Cork tile - 3.2mm,       !- Name
    MediumRough,             !- Roughness
    0.049;                   !- Thermal Resistance {m2-K/W}

Material:NoMass,
    Terrazzo - 25mm,         !- Name
    Rough,                   !- Roughness
    0.014;                   !- Thermal Resistance {m2-K/W}

Material:NoMass,
    Tile: asphalt - linoleum - vinyl - rubber,  !- Name
    MediumSmooth,            !- Roughness
    0.009;                   !- Thermal Resistance {m2-K/W}

Material:NoMass,
    Tile: vinyl asbestos,    !- Name
    VeryRough,               !- Roughness
    0.009;                   !- Thermal Resistance {m2-K/W}

Material:NoMass,
    Wood - hardwood finish - 19mm,  !- Name
    MediumSmooth,            !- Roughness
    0.12;                    !- Thermal Resistance {m2-K/W}

Material:NoMass,
    Insulation: Mineral fiber - processed from rock - slag - or glass - 75-100mm 6.4-32 kg/m3,  !- Name
    Rough,                   !- Roughness
    1.94;                    !- Thermal Resistance {m2-K/W}

Material:NoMass,
    Insulation: Mineral fiber - processed from rock - slag - or glass - 90mm -6.4-32 kg/m3,  !- Name
    Rough,                   !- Roughness
    2.29;                    !- Thermal Resistance {m2-K/W}

Material:NoMass,
    Insulation: Mineral fiber - processed from rock - slag - or glass - 90mm - 19-26 kg/m3,  !- Name
    Rough,                   !- Roughness
    2.63;                    !- Thermal Resistance {m2-K/W}

Material:NoMass,
    Insulation: Mineral fiber - processed from rock - slag - or glass - 140-165mm - 6.4-32 kg/m3,  !- Name
    Rough,                   !- Roughness
    3.32;                    !- Thermal Resistance {m2-K/W}

Material:NoMass,
    Insulation: Mineral fiber - processed from rock - slag - or glass - 140mm - 10-26 kg/m3,  !- Name
    Rough,                   !- Roughness
    3.67;                    !- Thermal Resistance {m2-K/W}

Material:NoMass,
    Insulation: Mineral fiber - processed from rock - slag - or glass - 150-190mm - 6.4-32 kg/m3,  !- Name
    Rough,                   !- Roughness
    3.91;                    !- Thermal Resistance {m2-K/W}

Material:NoMass,
    Insulation: Mineral fiber - processed from rock - slag - or glass - 210-250mm - 6.4-32 kg/m3,  !- Name
    Rough,                   !- Roughness
    5.34;                    !- Thermal Resistance {m2-K/W}

Material:NoMass,
    Insulation: Mineral fiber - processed from rock - slag - or glass - 250-330mm - 6.4-32 kg/m3,  !- Name
    Rough,                   !- Roughness
    6.77;                    !- Thermal Resistance {m2-K/W}

Material:NoMass,
    Acoustical tile - 12.7mm,!- Name
    MediumSmooth,            !- Roughness
    0.22;                    !- Thermal Resistance {m2-K/W}

Material:NoMass,
    Acoustical tile - 19mm,  !- Name
    MediumSmooth,            !- Roughness
    0.33;                    !- Thermal Resistance {m2-K/W}

Material:NoMass,
    Mineral fiber (rock - slag - glass) - 95-130mm,  !- Name
    VeryRough,               !- Roughness
    1.94;                    !- Thermal Resistance {m2-K/W}

Material:NoMass,
    Mineral fiber (rock - slag - glass) - 170-220mm,  !- Name
    VeryRough,               !- Roughness
    3.35;                    !- Thermal Resistance {m2-K/W}

Material:NoMass,
    Mineral fiber (rock - slag - glass) - 190-250mm,  !- Name
    VeryRough,               !- Roughness
    3.87;                    !- Thermal Resistance {m2-K/W}

Material:NoMass,
    Mineral fiber (rock - slag - glass) - 260-350mm,  !- Name
    VeryRough,               !- Roughness
    5.28;                    !- Thermal Resistance {m2-K/W}

Material:NoMass,
    Mineral fiber (rock - slag - glass) - 90mm (closed sidewall application),  !- Name
    VeryRough,               !- Roughness
    2.3;                     !- Thermal Resistance {m2-K/W}

Material:NoMass,
    Asbestos-cement shingles,!- Name
    VeryRough,               !- Roughness
    0.037;                   !- Thermal Resistance {m2-K/W}

Material:NoMass,
    Asphalt roll roofing,    !- Name
    VeryRough,               !- Roughness
    0.026;                   !- Thermal Resistance {m2-K/W}

Material:NoMass,
    Asphalt shingles,        !- Name
    VeryRough,               !- Roughness
    0.077;                   !- Thermal Resistance {m2-K/W}

Material:NoMass,
    Built-up roofing - 10mm, !- Name
    VeryRough,               !- Roughness
    0.058;                   !- Thermal Resistance {m2-K/W}

Material:NoMass,
    Slate - 13mm,            !- Name
    VeryRough,               !- Roughness
    0.009;                   !- Thermal Resistance {m2-K/W}

Material:NoMass,
    Wood shingles - plain and plastic film faced,  !- Name
    VeryRough,               !- Roughness
    0.166;                   !- Thermal Resistance {m2-K/W}

Material:NoMass,
    Cement Plaster: Sand aggregate - 10mm,  !- Name
    Smooth,                  !- Roughness
    0.013;                   !- Thermal Resistance {m2-K/W}

Material:NoMass,
    Cement Placter: Sand aggregate - 20mm,  !- Name
    Smooth,                  !- Roughness
    0.026;                   !- Thermal Resistance {m2-K/W}

Material:NoMass,
    Gypsum plaster: Lightweight aggregate - 13mm,  !- Name
    Smooth,                  !- Roughness
    0.056;                   !- Thermal Resistance {m2-K/W}

Material:NoMass,
    Gypsum plaster: Lightweight aggregate - 16mm,  !- Name
    Smooth,                  !- Roughness
    0.066;                   !- Thermal Resistance {m2-K/W}

Material:NoMass,
    Gypsum plaster: Lightweight aggregate on metal lath - 19mm,  !- Name
    Smooth,                  !- Roughness
    0.083;                   !- Thermal Resistance {m2-K/W}

Material:NoMass,
    Perlite aggregate plaster: Sand aggregate - 13mm,  !- Name
    Smooth,                  !- Roughness
    0.016;                   !- Thermal Resistance {m2-K/W}

Material:NoMass,
    Perlite aggregate plaster: Sand aggregate - 16mm,  !- Name
    Smooth,                  !- Roughness
    0.019;                   !- Thermal Resistance {m2-K/W}

Material:NoMass,
    Perlite aggregate plaster: Sand aggregate on metal lath - 19mm,  !- Name
    Smooth,                  !- Roughness
    0.023;                   !- Thermal Resistance {m2-K/W}

Material:NoMass,
    Clay tile - hollow - 1 cell deep - 75mm,  !- Name
    MediumSmooth,            !- Roughness
    0.14;                    !- Thermal Resistance {m2-K/W}

Material:NoMass,
    Clay tile - hollow - 1 cell deep - 100mm,  !- Name
    MediumSmooth,            !- Roughness
    0.2;                     !- Thermal Resistance {m2-K/W}

Material:NoMass,
    Clay tile - hollow - 2 cells deep - 150mm,  !- Name
    MediumSmooth,            !- Roughness
    0.27;                    !- Thermal Resistance {m2-K/W}

Material:NoMass,
    Clay tile - hollow - 2 cells deep - 200mm,  !- Name
    MediumSmooth,            !- Roughness
    0.33;                    !- Thermal Resistance {m2-K/W}

Material:NoMass,
    Clay tile - hollow - 2 cells deep - 250mm,  !- Name
    MediumSmooth,            !- Roughness
    0.39;                    !- Thermal Resistance {m2-K/W}

Material:NoMass,
    Clay tile - hollow - 3 cells deep - 300mm,  !- Name
    MediumSmooth,            !- Roughness
    0.44;                    !- Thermal Resistance {m2-K/W}

Material:NoMass,
    Gypsum partition tile 75 by 300 by 760mm - solid,  !- Name
    MediumRough,             !- Roughness
    0.222;                   !- Thermal Resistance {m2-K/W}

Material:NoMass,
    Gypsum partition tile 75 by 300 by 760mm - 4 cells,  !- Name
    MediumRough,             !- Roughness
    0.238;                   !- Thermal Resistance {m2-K/W}

Material:NoMass,
    Gypsum partition tile 100 by 300 by 760mm - 3 cells,  !- Name
    MediumRough,             !- Roughness
    0.294;                   !- Thermal Resistance {m2-K/W}

Material:NoMass,
    Shingles: Asbestos-cement,  !- Name
    VeryRough,               !- Roughness
    0.037;                   !- Thermal Resistance {m2-K/W}

Material:NoMass,
    Shingles: Wood 400mm - 190-mm exposure,  !- Name
    MediumRough,             !- Roughness
    0.15;                    !- Thermal Resistance {m2-K/W}

Material:NoMass,
    Shingles: Wood -double 400mm - 300-mm exposure,  !- Name
    MediumRough,             !- Roughness
    0.21;                    !- Thermal Resistance {m2-K/W}

Material:NoMass,
    Shingles: Wood - plus insul. backer board,  !- Name
    MediumRough,             !- Roughness
    0.25;                    !- Thermal Resistance {m2-K/W}

Material:NoMass,
    Siding: Asbestos-cement 6.4mm,  !- Name
    VeryRough,               !- Roughness
    0.037;                   !- Thermal Resistance {m2-K/W}

Material:NoMass,
    Siding: Asphalt roll,    !- Name
    VeryRough,               !- Roughness
    0.026;                   !- Thermal Resistance {m2-K/W}

Material:NoMass,
    Siding: Asphalt insulating,  !- Name
    VeryRough,               !- Roughness
    0.26;                    !- Thermal Resistance {m2-K/W}

Material:NoMass,
    Siding: Hardboard 11mm,  !- Name
    MediumSmooth,            !- Roughness
    0.12;                    !- Thermal Resistance {m2-K/W}

Material:NoMass,
    Siding: Wood - drop 20 by 200mm,  !- Name
    Rough,                   !- Roughness
    0.14;                    !- Thermal Resistance {m2-K/W}

Material:NoMass,
    Siding: Wood - bevel 13 by 200mm - lapped,  !- Name
    Rough,                   !- Roughness
    0.14;                    !- Thermal Resistance {m2-K/W}

Material:NoMass,
    Siding: Wood - bevel 19 by 250mm - lapped,  !- Name
    Rough,                   !- Roughness
    0.18;                    !- Thermal Resistance {m2-K/W}

Material:NoMass,
    Siding: Wood - plywood 9.5mm - lapped,  !- Name
    Rough,                   !- Roughness
    0.1;                     !- Thermal Resistance {m2-K/W}

Material:NoMass,
    Siding: Hollow-backed,   !- Name
[...]
    ECABS-2 BLEACHED 6MM,    !- Outside Layer
    ARGON 13MM,              !- Layer 2
    LoE SPEC SEL CLEAR 6MM Rev;  !- Layer 3

Construction,
    Dbl LoE Elec Abs Colored 6mm/13mm Arg,  !- Name
    ECABS-2 COLORED 6MM,     !- Outside Layer
    ARGON 13MM,              !- Layer 2
    LoE SPEC SEL CLEAR 6MM Rev;  !- Layer 3

Construction,
    Dbl LoE Elec Ref Bleached 6mm/6mm Air,  !- Name
    ECREF-2 BLEACHED 6MM,    !- Outside Layer
    AIR 6MM,                 !- Layer 2
    LoE SPEC SEL CLEAR 6MM Rev;  !- Layer 3

Construction,
    Dbl LoE Elec Ref Colored 6mm/6mm Air,  !- Name
    ECREF-2 COLORED 6MM,     !- Outside Layer
    AIR 6MM,                 !- Layer 2
    LoE SPEC SEL CLEAR 6MM Rev;  !- Layer 3

Construction,
    Dbl LoE Elec Ref Bleached 6mm/13mm Air,  !- Name
    ECREF-2 BLEACHED 6MM,    !- Outside Layer
    AIR 13MM,                !- Layer 2
    LoE SPEC SEL CLEAR 6MM Rev;  !- Layer 3

Construction,
    Dbl LoE Elec Ref Colored 6mm/13mm Air,  !- Name
    ECREF-2 COLORED 6MM,     !- Outside Layer
    AIR 13MM,                !- Layer 2
    LoE SPEC SEL CLEAR 6MM Rev;  !- Layer 3

Construction,
    Dbl LoE Elec Ref Bleached 6mm/13mm Arg,  !- Name
    ECREF-2 BLEACHED 6MM,    !- Outside Layer
    ARGON 13MM,              !- Layer 2
    LoE SPEC SEL CLEAR 6MM Rev;  !- Layer 3

Construction,
    Dbl LoE Elec Ref Colored 6mm/13m Arg,  !- Name
    ECREF-2 COLORED 6MM,     !- Outside Layer
    ARGON 13MM,              !- Layer 2
    LoE SPEC SEL CLEAR 6MM Rev;  !- Layer 3

Construction,
    Trp Clr 3mm/6mm Air,     !- Name
    CLEAR 3MM,               !- Outside Layer
    AIR 6MM,                 !- Layer 2
    CLEAR 3MM,               !- Layer 3
    AIR 6MM,                 !- Layer 4
    CLEAR 3MM;               !- Layer 5

Construction,
    Trp Clr 3mm/13mm Air,    !- Name
    CLEAR 3MM,               !- Outside Layer
    AIR 13MM,                !- Layer 2
    CLEAR 3MM,               !- Layer 3
    AIR 13MM,                !- Layer 4
    CLEAR 3MM;               !- Layer 5

Construction,
    Trp Clr 3mm/13mm Arg,    !- Name
    CLEAR 3MM,               !- Outside Layer
    ARGON 13MM,              !- Layer 2
    CLEAR 3MM,               !- Layer 3
    ARGON 13MM,              !- Layer 4
    CLEAR 3MM;               !- Layer 5

Construction,
    Trp LoE (e5=.1) Clr 3mm/6mm Air,  !- Name
    CLEAR 3MM,               !- Outside Layer
    AIR 6MM,                 !- Layer 2
    CLEAR 3MM,               !- Layer 3
    AIR 6MM,                 !- Layer 4
    LoE CLEAR 3MM Rev;       !- Layer 5

Construction,
    Trp LoE (e5=.1) Clr 3mm/13mm Air,  !- Name
    CLEAR 3MM,               !- Outside Layer
    AIR 13MM,                !- Layer 2
    CLEAR 3MM,               !- Layer 3
    AIR 13MM,                !- Layer 4
    LoE CLEAR 3MM Rev;       !- Layer 5

Construction,
    Trp LoE (e5=.1) Clr 3mm/13mm Arg,  !- Name
    CLEAR 3MM,               !- Outside Layer
    ARGON 13MM,              !- Layer 2
    CLEAR 3MM,               !- Layer 3
    ARGON 13MM,              !- Layer 4
    LoE CLEAR 3MM Rev;       !- Layer 5

Construction,
    Trp LoE (e2=e5=.1) Clr 3mm/6mm Air,  !- Name
    LoE CLEAR 3MM,           !- Outside Layer
    AIR 6MM,                 !- Layer 2
    CLEAR 3MM,               !- Layer 3
    AIR 6MM,                 !- Layer 4
    LoE CLEAR 3MM Rev;       !- Layer 5

Construction,
    Trp LoE (e2=e5=.1) Clr 3mm/13mm Air,  !- Name
    LoE CLEAR 3MM,           !- Outside Layer
    AIR 13MM,                !- Layer 2
    CLEAR 3MM,               !- Layer 3
    AIR 13MM,                !- Layer 4
    LoE CLEAR 3MM Rev;       !- Layer 5

Construction,
    Trp LoE (e2=e5=.1) Clr 3mm/13mm Arg,  !- Name
    LoE CLEAR 3MM,           !- Outside Layer
    ARGON 13MM,              !- Layer 2
    CLEAR 3MM,               !- Layer 3
    ARGON 13MM,              !- Layer 4
    LoE CLEAR 3MM Rev;       !- Layer 5

Construction,
    Trp LoE Film (88) Clr 3mm/6mm Air,  !- Name
    CLEAR 3MM,               !- Outside Layer
    AIR 6MM,                 !- Layer 2
    COATED POLY-88,          !- Layer 3
    AIR 6MM,                 !- Layer 4
    CLEAR 3MM;               !- Layer 5

Construction,
    Trp LoE Film (88) Clr 3mm/13mm Air,  !- Name
    CLEAR 3MM,               !- Outside Layer
    AIR 13MM,                !- Layer 2
    COATED POLY-88,          !- Layer 3
    AIR 13MM,                !- Layer 4
    CLEAR 3MM;               !- Layer 5

Construction,
    Trp LoE Film (77) Clr 3mm/6mm Air,  !- Name
    CLEAR 3MM,               !- Outside Layer
    AIR 6MM,                 !- Layer 2
    COATED POLY-77,          !- Layer 3
    AIR 6MM,                 !- Layer 4
    CLEAR 3MM;               !- Layer 5

Construction,
    Trp LoE Film (77) Clr 3mm/13mm Air,  !- Name
    CLEAR 3MM,               !- Outside Layer
    AIR 13MM,                !- Layer 2
    COATED POLY-77,          !- Layer 3
    AIR 13MM,                !- Layer 4
    CLEAR 3MM;               !- Layer 5

Construction,
    Trp LoE Film (66) Clr 6mm/6mm Air,  !- Name
    CLEAR 6MM,               !- Outside Layer
    AIR 6MM,                 !- Layer 2
    COATED POLY-66,          !- Layer 3
    AIR 6MM,                 !- Layer 4
    CLEAR 6MM;               !- Layer 5

Construction,
    Trp LoE Film (66) Clr 6mm/13mm Air,  !- Name
    CLEAR 6MM,               !- Outside Layer
    AIR 13MM,                !- Layer 2
    COATED POLY-66,          !- Layer 3
    AIR 13MM,                !- Layer 4
    CLEAR 6MM;               !- Layer 5

Construction,
    Trp LoE Film (66) Bronze 6mm/6mm Air,  !- Name
    BRONZE 6MM,              !- Outside Layer
    AIR 6MM,                 !- Layer 2
    COATED POLY-66,          !- Layer 3
    AIR 6MM,                 !- Layer 4
    CLEAR 6MM;               !- Layer 5

Construction,
    Trp LoE Film (66) Bronze 6mm/13mm Air,  !- Name
    BRONZE 6MM,              !- Outside Layer
    AIR 13MM,                !- Layer 2
    COATED POLY-66,          !- Layer 3
    AIR 13MM,                !- Layer 4
    CLEAR 6MM;               !- Layer 5

Construction,
    Trp LoE Film (55) Clr 6mm/6mm Air,  !- Name
    CLEAR 6MM,               !- Outside Layer
    AIR 6MM,                 !- Layer 2
    COATED POLY-55,          !- Layer 3
    AIR 6MM,                 !- Layer 4
    CLEAR 6MM;               !- Layer 5

Construction,
    Trp LoE Film (55) Clr 6mm/13m Air,  !- Name
    CLEAR 6MM,               !- Outside Layer
    AIR 13MM,                !- Layer 2
    COATED POLY-55,          !- Layer 3
    AIR 13MM,                !- Layer 4
    CLEAR 6MM;               !- Layer 5

Construction,
    Trp LoE Film (55) Bronze 6mm/6mm Air,  !- Name
    BRONZE 6MM,              !- Outside Layer
    AIR 6MM,                 !- Layer 2
    COATED POLY-55,          !- Layer 3
    AIR 6MM,                 !- Layer 4
    CLEAR 6MM;               !- Layer 5

Construction,
    Trp LoE Film (55) Bronze 6mm/13mm Air,  !- Name
    BRONZE 6MM,              !- Outside Layer
    AIR 13MM,                !- Layer 2
    COATED POLY-55,          !- Layer 3
    AIR 13MM,                !- Layer 4
    CLEAR 6MM;               !- Layer 5

Construction,
    Trp LoE Film (44) Bronze 6mm/6mm Air,  !- Name
    BRONZE 6MM,              !- Outside Layer
    AIR 6MM,                 !- Layer 2
    COATED POLY-44,          !- Layer 3
    AIR 6MM,                 !- Layer 4
    CLEAR 6MM;               !- Layer 5

Construction,
    Trp LoE Film (44) Bronze 6mm/13mm Air,  !- Name
    BRONZE 6MM,              !- Outside Layer
    AIR 13MM,                !- Layer 2
    COATED POLY-44,          !- Layer 3
    AIR 13MM,                !- Layer 4
    CLEAR 6MM;               !- Layer 5

Construction,
    Trp LoE Film (33) Bronze 6mm/6mm Air,  !- Name
    BRONZE 6MM,              !- Outside Layer
    AIR 6MM,                 !- Layer 2
    COATED POLY-33,          !- Layer 3
    AIR 6MM,                 !- Layer 4
    CLEAR 6MM;               !- Layer 5

Construction,
    Trp LoE Film (33) Bronze 6mm/13mm Air,  !- Name
    BRONZE 6MM,              !- Outside Layer
    AIR 13MM,                !- Layer 2
    COATED POLY-33,          !- Layer 3
    AIR 13MM,                !- Layer 4
    CLEAR 6MM;               !- Layer 5

Construction,
    Quadruple LoE Films (88) 3mm/8mm Krypton,  !- Name
    CLEAR 3MM,               !- Outside Layer
    KRYPTON 8MM,             !- Layer 2
    COATED POLY-88,          !- Layer 3
    KRYPTON 3MM,             !- Layer 4
    COATED POLY-88,          !- Layer 5
    KRYPTON 8MM,             !- Layer 6
    CLEAR 3MM;               !- Layer 7

Construction,
    DOUBLE PANE WINDOW,      !- Name
    CLEAR 6MM,               !- Outside Layer
    AIR 3MM,                 !- Layer 2
    CLEAR 6MM;               !- Layer 3

Construction,
    LTWALL,                  !- Name
    WOOD SIDING-1,           !- Outside Layer
    FIBERGLASS QUILT-1,      !- Layer 2
    PLASTERBOARD-1;          !- Layer 3

Construction,
    LTFLOOR,                 !- Name
    HF-C5;                   !- Outside Layer

Construction,
    LTROOF,                  !- Name
    ROOF DECK,               !- Outside Layer
    FIBERGLASS QUILT-2,      !- Layer 2
    PLASTERBOARD-2;          !- Layer 3


!-   ===========  ALL OBJECTS IN CLASS: GLOBALGEOMETRYRULES ===========

GlobalGeometryRules,
    UpperLeftCorner,         !- Starting Vertex Position
    Counterclockwise,        !- Vertex Entry Direction
    World;                   !- Coordinate System


!-   ===========  ALL OBJECTS IN CLASS: OUTPUT:DIAGNOSTICS ===========

Output:Diagnostics,
    DisplayUnusedObjects,    !- Key 1
    DisplayExtraWarnings;    !- Key 2

! ========================================
! ========================================
! ========================================
! ========================================
! ========================================
! ========================================
! ========================================
! ========================================
! ========================================
! ========================================
! ==== VERSION
Version,8.7.0;

! ==== TIME STEP
Timestep,15;

! ==== SHADOW CALCULATION
ShadowCalculation,20,100000;

! ==== BUILDING
Building,
    Building,
    0,
    Urban,
    0.04,
    0.4,
    FullExterior,
    25;
! 
! ==== GROUND TEMP
! Site:GroundTemperature:BuildingSurface,20,20,20,20,20,20,20,20,20,20,20,20;

! ==== SCHEDULE TYPE LIMITS
ScheduleTypeLimits,
    Fraction,
    0,
    1,
    CONTINUOUS,
    DIMENSIONLESS;

! ==== SCHEDULE TYPE LIMITS
ScheduleTypeLimits,
    Temperature,
    -60,
    200,
    CONTINUOUS,
    TEMPERATURE;

! ==== RUN PERIOD
RunPeriod,
    ,
    1,
    1,
    12,
    31,
    UseWeatherFile,
    Yes,
    Yes,
    No,
    Yes,
    Yes;

! ==== OUTPUT METER
Output:Meter,Cooling:EnergyTransfer ,Hourly;

! ==== OUTPUT METER
Output:Meter,Heating:EnergyTransfer ,Hourly;

! ==== BUILDING ZONE
Zone,
  zone1,
  0,
  0, 0, 0,
  1,
  1,
  autocalculate,
  autocalculate;

! ==== SCHEDULE COMPACT (HVAC)
Schedule:Compact,
    zone1_cool,
    Temperature,
    Through: 12/31,
    For: AllDays,
    Until:09:00, 50.0,
    Until:17:00, 25,
    Until: 24:00, 50.0;

! ==== SCHEDULE COMPACT (HVAC)
Schedule:Compact,
    zone1_heat,
    Temperature,
    Through: 12/31,
    For: AllDays,
    Until:09:00, -50.0,
    Until:17:00, 18,
    Until: 24:00, -50.0;
! 
! ==== THERMOSTAT
! HVACTemplate:Thermostat,
!     zone1_thermo,
!     zone1_heat,
!     ,
!     zone1_cool,
!     ;
! 
! ==== ZONE PURCHASED AIR
! HVACTemplate:Zone:IdealLoadsAirSystem,
!     zone1,
!     zone1_thermo;

! ==== SCHEDULE COMPACT
Schedule:Compact,
    zone1_internal_gains,
    Fraction,
    Through: 12/31,
    For: AllDays,
    Until:09:00, 0,
    Until:17:00, 1,
    Until: 24:00, 0;

! ==== INTERNAL GAINS OTHER EQUIPMENT
OtherEquipment,
    zone1_internal_gains,
    None,
    zone1,
    zone1_internal_gains,
    Watts/Area,
    ,
    20,
;! ==== BUILDING SURFACE
BuildingSurface:Detailed,
  wall0,
  Wall,
  Medium Exterior Wall,
  zone1,
  Outdoors,
  ,
  SunExposed,
  WindExposed,
  autocalculate,
  4,
  5.0,5.0,4.0,
  -5.0,5.0,4.0,
  -5.0,5.0,0.0,
  5.0,5.0,0.0;

! ==== BUILDING SURFACE
BuildingSurface:Detailed,
  wall1,
  Wall,
  Medium Exterior Wall,
  zone1,
  Outdoors,
  ,
  SunExposed,
  WindExposed,
  autocalculate,
  4,
  5.0,-5.0,4.0,
  5.0,5.0,4.0,
  5.0,5.0,0.0,
  5.0,-5.0,0.0;

! ==== BUILDING SURFACE
BuildingSurface:Detailed,
  wall2,
  Wall,
  Medium Exterior Wall,
  zone1,
  Outdoors,
  ,
  SunExposed,
  WindExposed,
  autocalculate,
  4,
  -5.0,-5.0,4.0,
  5.0,-5.0,4.0,
  5.0,-5.0,0.0,
  -5.0,-5.0,0.0;

! ==== BUILDING SURFACE
BuildingSurface:Detailed,
  wall3,
  Wall,
  Medium Exterior Wall,
  zone1,
  Outdoors,
  ,
  SunExposed,
  WindExposed,
  autocalculate,
  4,
  -5.0,5.0,4.0,
  -5.0,-5.0,4.0,
  -5.0,-5.0,0.0,
  -5.0,5.0,0.0;

! ==== BUILDING SURFACE
BuildingSurface:Detailed,
  roof0,
  Roof,
  Medium Roof/Ceiling,
  zone1,
  Outdoors,
  ,
  SunExposed,
  WindExposed,
  autocalculate,
  4,
  5.0,-5.0,4.0,
  -5.0,-5.0,4.0,
  -5.0,5.0,4.0,
  5.0,5.0,4.0;

! ==== BUILDING SURFACE
BuildingSurface:Detailed,
  floor0,
  Floor,
  Medium Floor,
  zone1,
  Ground,
  ,
  NoSun,
  NoWind,
  autocalculate,
  4,
  -5.0,-5.0,0.0,
  5.0,-5.0,0.0,
  5.0,5.0,0.0,
  -5.0,5.0,0.0;

! ==== WINDOW
FenestrationSurface:Detailed,
  win0,
  Window,
  Sgl Clr 3mm,
  wall0,
  ,
  autocalculate,
  ,
  ,
  1.0,
  4,
  4.75,5.0,2.8,
  -4.75,5.0,2.8,
  -4.75,5.0,1.2,
  4.75,5.0,1.2;

! ==== SHADING ZONE DETAILED
Shading:Zone:Detailed,
    shade0,
    wall0,
    ,
    4,
    -4.75,6.0,2.8,
    4.75,6.0,2.8,
    4.75,5.0,2.8,
    -4.75,5.0,2.8;

! ==== OUTPUT CONTROL TABLE STYLE
OutputControl:Table:Style,HTML ,JtoKWH;

! ==== OUTPUT SURFACES DRAWING
Output:Surfaces:Drawing,DXF;

! ==== OUTPUT TABLE SUMMARY REPORTS
Output:Table:SummaryReports,AllSummary;
! 
! -------------------------------------------------------------
! New objects created from ExpandObjects
! -------------------------------------------------------------
! 

ThermostatSetpoint:DualSetpoint,
  zone1_thermo Dual SP Control,                            !- Name
  zone1_heat,                                              !- Heating Setpoint Temperature Schedule Name
  zone1_cool;                                              !- Cooling Setpoint Temperature Schedule Name

ScheduleTypeLimits,
  HVACTemplate Any Number;                                 !- Name

Schedule:Compact,
  HVACTemplate-Always 4,                                   !- Name
  HVACTemplate Any Number,                                 !- Schedule Type Limits Name
  Through: 12/31,                                          !- Field 1
  For: AllDays,                                            !- Field 2
  Until: 24:00,                                            !- Field 3
  4;                                                       !- Field 4

ZoneControl:Thermostat,
  zone1 Thermostat,                                        !- Name
  zone1,                                                   !- Zone or ZoneList Name
  HVACTemplate-Always 4,                                   !- Control Type Schedule Name
  ThermostatSetpoint:DualSetpoint,                         !- Control Object Type
  zone1_thermo Dual SP Control;                            !- Control Name

ZoneHVAC:EquipmentConnections,
  zone1,                                                   !- Zone Name
  zone1 Equipment,                                         !- Zone Conditioning Equipment List Name
  zone1 Ideal Loads Supply Inlet,                          !- Zone Air Inlet Node or NodeList Name
  ,                                                        !- Zone Air Exhaust Node or NodeList Name
  zone1 Zone Air Node,                                     !- Zone Air Node Name
  zone1 Return Outlet;                                     !- Zone Return Air Node Name

ZoneHVAC:EquipmentList,
  zone1 Equipment,                                         !- Name
  ZoneHVAC:IdealLoadsAirSystem,                            !- Zone Equipment Object Type
  zone1 Ideal Loads Air System,                            !- Zone Equipment Name
  1,                                                       !- Zone Equipment Cooling Sequence
  1;                                                       !- Zone Equipment Heating or No-Load Sequence

ZoneHVAC:IdealLoadsAirSystem,
  zone1 Ideal Loads Air System,                            !- Name
  ,                                                        !- Availability Schedule Name
  zone1 Ideal Loads Supply Inlet,                          !- Zone Supply Air Node Name
  ,                                                        !- Zone Exhaust Air Node Name
  50,                                                      !- Maximum Heating Supply Air Temperature [C]
  13,                                                      !- Minimum Cooling Supply Air Temperature [C]
  0.0156,                                                  !- Maximum Heating Supply Air Humidity Ratio [kg-H20/kg-air]
  0.0077,                                                  !- Minimum Cooling Supply Air Humidity Ratio [kg-H20/kg-air]
  NoLimit,                                                 !- Heating Limit
  ,                                                        !- Maximum Heating Air Flow Rate {m3/s}
  ,                                                        !- Maximum Sensible Heating Capacity {m3/s}
  NoLimit,                                                 !- Cooling Limit
  ,                                                        !- Maximum Cooling Air Flow Rate {m3/s}
  ,                                                        !- Maximum Total Cooling Capacity {m3/s}
  ,                                                        !- Heating Availability Schedule Name
  ,                                                        !- Cooling Availability Schedule Name
  ConstantSensibleHeatRatio,                               !- Dehumidification Control Type
  0.7,                                                     !- Cooling Sensible Heat Ratio
  None,                                                    !- Humidification Control Type
  ,                                                        !- Design Specification Outdoor Air Object Name
  ,                                                        !- Outdoor Air Inlet Node Name
  None,                                                    !- Demand Controlled Ventilation Type
  NoEconomizer,                                            !- Outdoor Air Economizer Type
  None,                                                    !- Heat Recovery Type
  0.7,                                                     !- Sensible Heat Recovery Effectiveness
  0.65;                                                    !- Latent Heat Recovery Effectiveness

Site:GroundTemperature:BuildingSurface,
  20,                                                      !- January Ground Temperature
  20,                                                      !- February Ground Temperature
  20,                                                      !- March Ground Temperature
  20,                                                      !- April Ground Temperature
  20,                                                      !- May Ground Temperature
  20,                                                      !- June Ground Temperature
  20,                                                      !- July Ground Temperature
  20,                                                      !- August Ground Temperature
  20,                                                      !- September Ground Temperature
  20,                                                      !- October Ground Temperature
  20,                                                      !- November Ground Temperature
  20;                                                      !- December Ground Temperature
